Unloading StdEnv/2020

The following have been reloaded with a version change:
  1) gcccore/.9.3.0 => gcccore/.7.3.0     3) openmpi/4.0.3 => openmpi/3.1.4
  2) mii/1.1.2 => mii/1.1.1

/cvmfs/soft.computecanada.ca/easybuild/software/2017/avx2/MPI/gcc7.3/openmpi3.1/openfoam/7/OpenFOAM-7/etc/config.sh/paraview: line 102: [: too many arguments
/*---------------------------------------------------------------------------*\
  =========                 |
  \\      /  F ield         | OpenFOAM: The Open Source CFD Toolbox
   \\    /   O peration     | Website:  https://openfoam.org
    \\  /    A nd           | Version:  7
     \\/     M anipulation  |
\*---------------------------------------------------------------------------*/
Build  : 7
Exec   : changeDictionary
Date   : Aug 17 2023
Time   : 09:56:13
Host   : "cdr1477.int.cedar.computecanada.ca"
PID    : 153185
I/O    : uncollated
Case   : /scratch/payamghp/cubicBuilding.windDrivenRainFoam_kOmega_overhang12_U2.12
nProcs : 1
sigFpe : Enabling floating point exception trapping (FOAM_SIGFPE).
fileModificationChecking : Monitoring run-time modified files using timeStampMaster (fileModificationSkew 10)
allowSystemOperations : Allowing user-supplied system call operations

// * * * * * * * * * * * * * * * * * * * * * * * * * * * * * * * * * * * * * //
--> FOAM Warning : 
changeDictionary has been superseded by foamDictionary and is now deprecated.

Create time

Create mesh for time = 0

Read dictionary changeDictionaryDict with replacements for dictionaries 
5
(
boundary
U
k
epsilon
nut
)

Reading polyMesh/boundary file to extract patch names
Loaded dictionary boundary with entries 
8
(
overhang
sides
top
inlet
outlet
ground
cube
windward
)

Replacing entries in dictionary boundary
Special handling of boundary as polyMesh/boundary file.
Merging entries from 
2
(
inlet
top
)

fieldDict:
{
    overhang
    {
        type            wall;
        inGroups        List<word> 0();
        nFaces          542;
        startFace       15582207;
    }
    sides
    {
        type            slip;
        inGroups        List<word> 0();
        nFaces          48556;
        startFace       15582749;
    }
    top
    {
        type            mappedPatch;
        inGroups        List<word> 0();
        nFaces          45173;
        startFace       15631305;
        sampleMode      nearestCell;
        sampleRegion    region0;
        samplePatch     none;
        offsetMode      uniform;
        offset          ( 0 -1 0 );
    }
    inlet
    {
        type            mappedPatch;
        nFaces          27694;
        startFace       15676478;
        sampleMode      nearestCell;
        sampleRegion    region0;
        samplePatch     none;
        offsetMode      uniform;
        offset          ( 1 0 0 );
    }
    outlet
    {
        type            patch;
        nFaces          27694;
        startFace       15704172;
    }
    ground
    {
        type            wall;
        inGroups        List<word> 0();
        nFaces          39178;
        startFace       15731866;
    }
    cube
    {
        type            wall;
        inGroups        List<word> 0();
        nFaces          17253;
        startFace       15771044;
    }
    windward
    {
        type            wall;
        inGroups        List<word> 0();
        nFaces          4936;
        startFace       15788297;
    }
}

Writing modified boundary
Replacing entries in dictionary U
Loading dictionary U
Loaded dictionary U with entries 
3
(
dimensions
internalField
boundaryField
)

Merging entries from 1(boundaryField)
Writing modified fieldDict U
Replacing entries in dictionary k
Loading dictionary k
Loaded dictionary k with entries 
3
(
dimensions
internalField
boundaryField
)

Merging entries from 1(boundaryField)
Writing modified fieldDict k
Replacing entries in dictionary epsilon
Loading dictionary epsilon
Loaded dictionary epsilon with entries 
3
(
dimensions
internalField
boundaryField
)

Merging entries from 1(boundaryField)
Writing modified fieldDict epsilon
Replacing entries in dictionary nut
Loading dictionary nut
Loaded dictionary nut with entries 
3
(
dimensions
internalField
boundaryField
)

Merging entries from 1(boundaryField)
Writing modified fieldDict nut

End

/*---------------------------------------------------------------------------*\
  =========                 |
  \\      /  F ield         | OpenFOAM: The Open Source CFD Toolbox
   \\    /   O peration     | Website:  https://openfoam.org
    \\  /    A nd           | Version:  7
     \\/     M anipulation  |
\*---------------------------------------------------------------------------*/
Build  : 7
Exec   : decomposePar -force
Date   : Aug 17 2023
Time   : 09:58:38
Host   : "cdr1477.int.cedar.computecanada.ca"
PID    : 163335
I/O    : uncollated
Case   : /scratch/payamghp/cubicBuilding.windDrivenRainFoam_kOmega_overhang12_U2.12
nProcs : 1
sigFpe : Enabling floating point exception trapping (FOAM_SIGFPE).
fileModificationChecking : Monitoring run-time modified files using timeStampMaster (fileModificationSkew 10)
allowSystemOperations : Allowing user-supplied system call operations

// * * * * * * * * * * * * * * * * * * * * * * * * * * * * * * * * * * * * * //
Create time

Removing 0 existing processor directories


Decomposing mesh region0

Create mesh

Calculating distribution of cells
 Foam::decompositionMethod::New 
{
    numberOfSubdomains 8;
    method          simple;
    simpleCoeffs
    {
        n               ( 4 1 2 );
        delta           0.001;
    }
    hierarchicalCoeffs
    {
        n               ( 2 3 1 );
        delta           0.001;
        order           xyz;
    }
    manualCoeffs
    {
        dataFile        "cellDecomposition";
    }
}

Selecting decompositionMethod simple

Finished decomposition in 6.01 s

Calculating original mesh data

Distributing cells to processors

Distributing faces to processors

Distributing points to processors

Constructing processor meshes

Processor 0
    Number of cells = 658084
    Number of faces shared with processor 1 = 14099
    Number of faces shared with processor 4 = 5804
    Number of faces shared with processor 5 = 1
    Number of processor patches = 3
    Number of processor faces = 19904
    Number of boundary faces = 30566

Processor 1
    Number of cells = 655451
    Number of faces shared with processor 0 = 14099
    Number of faces shared with processor 2 = 11260
    Number of faces shared with processor 5 = 4841
    Number of processor patches = 3
    Number of processor faces = 30200
    Number of boundary faces = 23014

Processor 2
    Number of cells = 653369
    Number of faces shared with processor 1 = 11260
    Number of faces shared with processor 3 = 13852
    Number of faces shared with processor 5 = 1
    Number of faces shared with processor 6 = 5258
    Number of faces shared with processor 7 = 7
    Number of processor patches = 5
    Number of processor faces = 30378
    Number of boundary faces = 21788

Processor 3
    Number of cells = 647716
    Number of faces shared with processor 2 = 13852
    Number of faces shared with processor 7 = 5947
    Number of processor patches = 2
    Number of processor faces = 19799
    Number of boundary faces = 30017

Processor 4
    Number of cells = 649226
    Number of faces shared with processor 0 = 5804
    Number of faces shared with processor 5 = 13915
    Number of processor patches = 2
    Number of processor faces = 19719
    Number of boundary faces = 30283

Processor 5
    Number of cells = 651859
    Number of faces shared with processor 0 = 1
    Number of faces shared with processor 1 = 4841
    Number of faces shared with processor 2 = 1
    Number of faces shared with processor 4 = 13915
    Number of faces shared with processor 6 = 11423
    Number of processor patches = 5
    Number of processor faces = 30181
    Number of boundary faces = 23179

Processor 6
    Number of cells = 653941
    Number of faces shared with processor 2 = 5258
    Number of faces shared with processor 5 = 11423
    Number of faces shared with processor 7 = 14069
    Number of processor patches = 3
    Number of processor faces = 30750
    Number of boundary faces = 21462

Processor 7
    Number of cells = 659594
    Number of faces shared with processor 2 = 7
    Number of faces shared with processor 3 = 5947
    Number of faces shared with processor 6 = 14069
    Number of processor patches = 3
    Number of processor faces = 20023
    Number of boundary faces = 30717

Number of processor faces = 100477
Max number of cells = 659594 (0.9085832741% above average 653655)
Max number of processor patches = 5 (53.84615385% above average 3.25)
Max number of faces between processors = 30750 (22.41607532% above average 25119.25)

Time = 0

Processor 0: field transfer
Processor 1: field transfer
Processor 2: field transfer
Processor 3: field transfer
Processor 4: field transfer
Processor 5: field transfer
Processor 6: field transfer
Processor 7: field transfer

End

/*---------------------------------------------------------------------------*\
  =========                 |
  \\      /  F ield         | OpenFOAM: The Open Source CFD Toolbox
   \\    /   O peration     | Website:  https://openfoam.org
    \\  /    A nd           | Version:  7
     \\/     M anipulation  |
\*---------------------------------------------------------------------------*/
Build  : 7
Exec   : /home/payamghp/OpenFOAM/payamghp-7/platforms/linux64GccDPInt32Opt/bin/windDrivenRainFoam -parallel
Date   : Aug 17 2023
Time   : 10:05:33
Host   : "cdr1477.int.cedar.computecanada.ca"
PID    : 192693
I/O    : uncollated
Case   : /scratch/payamghp/cubicBuilding.windDrivenRainFoam_kOmega_overhang12_U2.12
nProcs : 8
Slaves : 
7
(
"cdr1477.int.cedar.computecanada.ca.192694"
"cdr1477.int.cedar.computecanada.ca.192695"
"cdr1477.int.cedar.computecanada.ca.192698"
"cdr1477.int.cedar.computecanada.ca.192699"
"cdr1477.int.cedar.computecanada.ca.192700"
"cdr1477.int.cedar.computecanada.ca.192701"
"cdr1477.int.cedar.computecanada.ca.192702"
)

Pstream initialized with:
    floatTransfer      : 0
    nProcsSimpleSum    : 0
    commsType          : nonBlocking
    polling iterations : 0
sigFpe : Enabling floating point exception trapping (FOAM_SIGFPE).
fileModificationChecking : Monitoring run-time modified files using timeStampMaster (fileModificationSkew 10)
allowSystemOperations : Allowing user-supplied system call operations

// * * * * * * * * * * * * * * * * * * * * * * * * * * * * * * * * * * * * * //
Create time

Create mesh for time = 0

Reading transportProperties

Reading field U


Reading g

SIMPLE: Convergence criteria found
        "alpha.*": tolerance 1e-05
        "U.*": tolerance 1e-05


Turbulent dispersion of raindrops is neglected

Temperature: 285.85 K
Air density: 1.232946429 kg/m3
Air dynamic viscosity: 1.774464286e-05 kg/m-s
Water density: 999.4325 kg/m3

Time = 1
DILUPBiCG:  Solving for alpha1, Initial residual = 1, Final residual = 1.132132103e-05, No Iterations 1
DILUPBiCG:  Solving for U1x, Initial residual = 1, Final residual = 0.001064043237, No Iterations 1
DILUPBiCG:  Solving for U1y, Initial residual = 1, Final residual = 0.0009789320198, No Iterations 1
DILUPBiCG:  Solving for U1z, Initial residual = 1, Final residual = 0.00590019421, No Iterations 1
DILUPBiCG:  Solving for alpha2, Initial residual = 1, Final residual = 1.132132103e-05, No Iterations 1
DILUPBiCG:  Solving for U2x, Initial residual = 1, Final residual = 0.001615483143, No Iterations 1
DILUPBiCG:  Solving for U2y, Initial residual = 1, Final residual = 0.001519326274, No Iterations 1
DILUPBiCG:  Solving for U2z, Initial residual = 1, Final residual = 0.009230131, No Iterations 1
DILUPBiCG:  Solving for alpha3, Initial residual = 1, Final residual = 1.132132103e-05, No Iterations 1
DILUPBiCG:  Solving for U3x, Initial residual = 1, Final residual = 0.002197576652, No Iterations 1
DILUPBiCG:  Solving for U3y, Initial residual = 1, Final residual = 0.002079609773, No Iterations 1
DILUPBiCG:  Solving for U3z, Initial residual = 1, Final residual = 0.01251077948, No Iterations 1
DILUPBiCG:  Solving for alpha4, Initial residual = 1, Final residual = 1.132132103e-05, No Iterations 1
DILUPBiCG:  Solving for U4x, Initial residual = 1, Final residual = 0.002739361767, No Iterations 1
DILUPBiCG:  Solving for U4y, Initial residual = 1, Final residual = 0.002610084123, No Iterations 1
DILUPBiCG:  Solving for U4z, Initial residual = 1, Final residual = 0.01558994696, No Iterations 1
DILUPBiCG:  Solving for alpha5, Initial residual = 1, Final residual = 1.132132103e-05, No Iterations 1
DILUPBiCG:  Solving for U5x, Initial residual = 1, Final residual = 0.003263670591, No Iterations 1
DILUPBiCG:  Solving for U5y, Initial residual = 1, Final residual = 0.003112597157, No Iterations 1
DILUPBiCG:  Solving for U5z, Initial residual = 1, Final residual = 0.01837282755, No Iterations 1
DILUPBiCG:  Solving for alpha6, Initial residual = 1, Final residual = 1.132132103e-05, No Iterations 1
DILUPBiCG:  Solving for U6x, Initial residual = 1, Final residual = 0.003744029272, No Iterations 1
DILUPBiCG:  Solving for U6y, Initial residual = 1, Final residual = 0.003578314542, No Iterations 1
DILUPBiCG:  Solving for U6z, Initial residual = 1, Final residual = 0.02084952698, No Iterations 1
DILUPBiCG:  Solving for alpha7, Initial residual = 1, Final residual = 1.132132103e-05, No Iterations 1
DILUPBiCG:  Solving for U7x, Initial residual = 1, Final residual = 0.004204126977, No Iterations 1
DILUPBiCG:  Solving for U7y, Initial residual = 1, Final residual = 0.004015756825, No Iterations 1
DILUPBiCG:  Solving for U7z, Initial residual = 1, Final residual = 0.02304854432, No Iterations 1
DILUPBiCG:  Solving for alpha8, Initial residual = 1, Final residual = 1.132132103e-05, No Iterations 1
DILUPBiCG:  Solving for U8x, Initial residual = 1, Final residual = 0.004622834357, No Iterations 1
DILUPBiCG:  Solving for U8y, Initial residual = 1, Final residual = 0.004416668314, No Iterations 1
DILUPBiCG:  Solving for U8z, Initial residual = 1, Final residual = 0.02497536507, No Iterations 1
DILUPBiCG:  Solving for alpha9, Initial residual = 1, Final residual = 1.132132103e-05, No Iterations 1
DILUPBiCG:  Solving for U9x, Initial residual = 1, Final residual = 0.005388034567, No Iterations 1
DILUPBiCG:  Solving for U9y, Initial residual = 1, Final residual = 0.005140559019, No Iterations 1
DILUPBiCG:  Solving for U9z, Initial residual = 1, Final residual = 0.02816477305, No Iterations 1
DILUPBiCG:  Solving for alpha10, Initial residual = 1, Final residual = 1.132132103e-05, No Iterations 1
DILUPBiCG:  Solving for U10x, Initial residual = 1, Final residual = 0.006045544679, No Iterations 1
DILUPBiCG:  Solving for U10y, Initial residual = 1, Final residual = 0.005764378133, No Iterations 1
DILUPBiCG:  Solving for U10z, Initial residual = 1, Final residual = 0.03062839624, No Iterations 1
DILUPBiCG:  Solving for alpha11, Initial residual = 1, Final residual = 1.132132103e-05, No Iterations 1
DILUPBiCG:  Solving for U11x, Initial residual = 1, Final residual = 0.006611210718, No Iterations 1
DILUPBiCG:  Solving for U11y, Initial residual = 1, Final residual = 0.006285382098, No Iterations 1
DILUPBiCG:  Solving for U11z, Initial residual = 1, Final residual = 0.0325313926, No Iterations 1
DILUPBiCG:  Solving for alpha12, Initial residual = 1, Final residual = 1.132132103e-05, No Iterations 1
DILUPBiCG:  Solving for U12x, Initial residual = 1, Final residual = 0.007092782344, No Iterations 1
DILUPBiCG:  Solving for U12y, Initial residual = 1, Final residual = 0.006724497016, No Iterations 1
DILUPBiCG:  Solving for U12z, Initial residual = 1, Final residual = 0.03398873549, No Iterations 1
DILUPBiCG:  Solving for alpha13, Initial residual = 1, Final residual = 1.132132103e-05, No Iterations 1
DILUPBiCG:  Solving for U13x, Initial residual = 1, Final residual = 0.007487921203, No Iterations 1
DILUPBiCG:  Solving for U13y, Initial residual = 1, Final residual = 0.007086447212, No Iterations 1
DILUPBiCG:  Solving for U13z, Initial residual = 1, Final residual = 0.03509629583, No Iterations 1
DILUPBiCG:  Solving for alpha14, Initial residual = 1, Final residual = 1.132132103e-05, No Iterations 1
DILUPBiCG:  Solving for U14x, Initial residual = 1, Final residual = 0.008803211791, No Iterations 1
DILUPBiCG:  Solving for U14y, Initial residual = 1, Final residual = 0.008277634486, No Iterations 1
DILUPBiCG:  Solving for U14z, Initial residual = 1, Final residual = 0.03797654301, No Iterations 1
DILUPBiCG:  Solving for alpha15, Initial residual = 1, Final residual = 1.132132103e-05, No Iterations 1
DILUPBiCG:  Solving for U15x, Initial residual = 1, Final residual = 0.009505363369, No Iterations 1
DILUPBiCG:  Solving for U15y, Initial residual = 1, Final residual = 0.008892981433, No Iterations 1
DILUPBiCG:  Solving for U15z, Initial residual = 1, Final residual = 0.03903533531, No Iterations 1
DILUPBiCG:  Solving for alpha16, Initial residual = 1, Final residual = 1.132132103e-05, No Iterations 1
DILUPBiCG:  Solving for U16x, Initial residual = 1, Final residual = 0.009919626255, No Iterations 1
DILUPBiCG:  Solving for U16y, Initial residual = 1, Final residual = 0.009250329947, No Iterations 1
DILUPBiCG:  Solving for U16z, Initial residual = 1, Final residual = 0.03942630735, No Iterations 1
DILUPBiCG:  Solving for alpha17, Initial residual = 1, Final residual = 1.132132103e-05, No Iterations 1
DILUPBiCG:  Solving for U17x, Initial residual = 1, Final residual = 0.01017713704, No Iterations 1
DILUPBiCG:  Solving for U17y, Initial residual = 1, Final residual = 0.009478882102, No Iterations 1
DILUPBiCG:  Solving for U17z, Initial residual = 1, Final residual = 0.03954001327, No Iterations 1
ExecutionTime = 53.23 s ClockTime = 54 s


Time = 2
DILUPBiCG:  Solving for alpha1, Initial residual = 0.1226703234, Final residual = 0.003683774633, No Iterations 2
DILUPBiCG:  Solving for U1x, Initial residual = 0.2603436214, Final residual = 0.001169758631, No Iterations 1
DILUPBiCG:  Solving for U1y, Initial residual = 0.7743088413, Final residual = 0.002950551109, No Iterations 1
DILUPBiCG:  Solving for U1z, Initial residual = 0.1200314054, Final residual = 0.002678110669, No Iterations 1
DILUPBiCG:  Solving for alpha2, Initial residual = 0.097435221, Final residual = 0.003309040175, No Iterations 2
DILUPBiCG:  Solving for U2x, Initial residual = 0.2517511792, Final residual = 0.001875632303, No Iterations 1
DILUPBiCG:  Solving for U2y, Initial residual = 0.7509607273, Final residual = 0.0048221465, No Iterations 1
DILUPBiCG:  Solving for U2z, Initial residual = 0.1167212478, Final residual = 0.004174884369, No Iterations 1
DILUPBiCG:  Solving for alpha3, Initial residual = 0.07945685975, Final residual = 0.002878752347, No Iterations 2
DILUPBiCG:  Solving for U3x, Initial residual = 0.2428455435, Final residual = 0.002553879758, No Iterations 1
DILUPBiCG:  Solving for U3y, Initial residual = 0.6583987004, Final residual = 0.006556008587, No Iterations 1
DILUPBiCG:  Solving for U3z, Initial residual = 0.1119664143, Final residual = 0.005294646097, No Iterations 1
DILUPBiCG:  Solving for alpha4, Initial residual = 0.06646254202, Final residual = 0.00245321783, No Iterations 2
DILUPBiCG:  Solving for U4x, Initial residual = 0.233769403, Final residual = 0.003138446092, No Iterations 1
DILUPBiCG:  Solving for U4y, Initial residual = 0.5420090775, Final residual = 0.007540524767, No Iterations 1
DILUPBiCG:  Solving for U4z, Initial residual = 0.1065260918, Final residual = 0.006007710801, No Iterations 1
DILUPBiCG:  Solving for alpha5, Initial residual = 0.05666562494, Final residual = 0.002075554852, No Iterations 2
DILUPBiCG:  Solving for U5x, Initial residual = 0.2251411051, Final residual = 0.003615784567, No Iterations 1
DILUPBiCG:  Solving for U5y, Initial residual = 0.4099164409, Final residual = 0.007457670424, No Iterations 1
DILUPBiCG:  Solving for U5z, Initial residual = 0.1009422238, Final residual = 0.00642478135, No Iterations 1
DILUPBiCG:  Solving for alpha6, Initial residual = 0.04906959863, Final residual = 0.001771842886, No Iterations 2
DILUPBiCG:  Solving for U6x, Initial residual = 0.2164372532, Final residual = 0.004025282922, No Iterations 1
DILUPBiCG:  Solving for U6y, Initial residual = 0.3125219239, Final residual = 0.00676290663, No Iterations 1
DILUPBiCG:  Solving for U6z, Initial residual = 0.09522634595, Final residual = 0.00665058884, No Iterations 1
DILUPBiCG:  Solving for alpha7, Initial residual = 0.04363414058, Final residual = 0.001505189501, No Iterations 2
DILUPBiCG:  Solving for U7x, Initial residual = 0.2078210893, Final residual = 0.004369609212, No Iterations 1
DILUPBiCG:  Solving for U7y, Initial residual = 0.2465264458, Final residual = 0.005800726094, No Iterations 1
DILUPBiCG:  Solving for U7z, Initial residual = 0.08968524279, Final residual = 0.0067079011, No Iterations 1
DILUPBiCG:  Solving for alpha8, Initial residual = 0.03927754294, Final residual = 0.001281413394, No Iterations 2
DILUPBiCG:  Solving for U8x, Initial residual = 0.1998735016, Final residual = 0.004595456233, No Iterations 1
DILUPBiCG:  Solving for U8y, Initial residual = 0.2180024678, Final residual = 0.005023770119, No Iterations 1
DILUPBiCG:  Solving for U8z, Initial residual = 0.08497463619, Final residual = 0.006661404884, No Iterations 1
DILUPBiCG:  Solving for alpha9, Initial residual = 0.03329967897, Final residual = 0.0009446400497, No Iterations 2
DILUPBiCG:  Solving for U9x, Initial residual = 0.1863777785, Final residual = 0.004720080707, No Iterations 1
DILUPBiCG:  Solving for U9y, Initial residual = 0.2576196707, Final residual = 0.004287762826, No Iterations 1
DILUPBiCG:  Solving for U9z, Initial residual = 0.07778969631, Final residual = 0.006412222817, No Iterations 1
DILUPBiCG:  Solving for alpha10, Initial residual = 0.02998614901, Final residual = 0.00071137365, No Iterations 2
DILUPBiCG:  Solving for U10x, Initial residual = 0.1754438017, Final residual = 0.004664393661, No Iterations 1
DILUPBiCG:  Solving for U10y, Initial residual = 0.289499354, Final residual = 0.003825075228, No Iterations 1
DILUPBiCG:  Solving for U10z, Initial residual = 0.07270016048, Final residual = 0.006088988722, No Iterations 1
DILUPBiCG:  Solving for alpha11, Initial residual = 0.02728505745, Final residual = 0.0005484140654, No Iterations 2
DILUPBiCG:  Solving for U11x, Initial residual = 0.1663182754, Final residual = 0.004510559029, No Iterations 1
DILUPBiCG:  Solving for U11y, Initial residual = 0.2895524537, Final residual = 0.003379181303, No Iterations 1
DILUPBiCG:  Solving for U11z, Initial residual = 0.06918241006, Final residual = 0.005766677036, No Iterations 1
DILUPBiCG:  Solving for alpha12, Initial residual = 0.02514776278, Final residual = 0.0004343749482, No Iterations 2
DILUPBiCG:  Solving for U12x, Initial residual = 0.1587152966, Final residual = 0.004339334242, No Iterations 1
DILUPBiCG:  Solving for U12y, Initial residual = 0.2794572849, Final residual = 0.002977856038, No Iterations 1
DILUPBiCG:  Solving for U12z, Initial residual = 0.0669785674, Final residual = 0.005437773586, No Iterations 1
DILUPBiCG:  Solving for alpha13, Initial residual = 0.02346383719, Final residual = 0.0003543541747, No Iterations 2
DILUPBiCG:  Solving for U13x, Initial residual = 0.1531507804, Final residual = 0.004115651865, No Iterations 1
DILUPBiCG:  Solving for U13y, Initial residual = 0.2736676525, Final residual = 0.002628147084, No Iterations 1
DILUPBiCG:  Solving for U13z, Initial residual = 0.06649946721, Final residual = 0.005111837495, No Iterations 1
DILUPBiCG:  Solving for alpha14, Initial residual = 0.01894381273, Final residual = 0.001714363761, No Iterations 1
DILUPBiCG:  Solving for U14x, Initial residual = 0.155501156, Final residual = 0.002795042238, No Iterations 1
DILUPBiCG:  Solving for U14y, Initial residual = 0.3218375934, Final residual = 0.001664343665, No Iterations 1
DILUPBiCG:  Solving for U14z, Initial residual = 0.08394321526, Final residual = 0.003378253486, No Iterations 1
DILUPBiCG:  Solving for alpha15, Initial residual = 0.01669529573, Final residual = 0.00123994109, No Iterations 1
DILUPBiCG:  Solving for U15x, Initial residual = 0.1750325631, Final residual = 0.001887944978, No Iterations 1
DILUPBiCG:  Solving for U15y, Initial residual = 0.3798007853, Final residual = 0.001111398781, No Iterations 1
DILUPBiCG:  Solving for U15z, Initial residual = 0.1119007216, Final residual = 0.002439050311, No Iterations 1
DILUPBiCG:  Solving for alpha16, Initial residual = 0.01488956866, Final residual = 0.001013063352, No Iterations 1
DILUPBiCG:  Solving for U16x, Initial residual = 0.1932278574, Final residual = 0.001403227281, No Iterations 1
DILUPBiCG:  Solving for U16y, Initial residual = 0.4193607247, Final residual = 0.000765879919, No Iterations 1
DILUPBiCG:  Solving for U16z, Initial residual = 0.1384977833, Final residual = 0.002024859915, No Iterations 1
DILUPBiCG:  Solving for alpha17, Initial residual = 0.01350540203, Final residual = 0.0008765359496, No Iterations 1
DILUPBiCG:  Solving for U17x, Initial residual = 0.2094119298, Final residual = 0.001105903573, No Iterations 1
DILUPBiCG:  Solving for U17y, Initial residual = 0.4490889753, Final residual = 0.0005534636427, No Iterations 1
DILUPBiCG:  Solving for U17z, Initial residual = 0.162478656, Final residual = 0.001796225374, No Iterations 1
ExecutionTime = 83.74 s ClockTime = 85 s


Time = 3
DILUPBiCG:  Solving for alpha1, Initial residual = 0.1355719224, Final residual = 0.003795956462, No Iterations 2
DILUPBiCG:  Solving for U1x, Initial residual = 0.08268520293, Final residual = 0.0007439935647, No Iterations 1
DILUPBiCG:  Solving for U1y, Initial residual = 0.2870631204, Final residual = 0.002366010707, No Iterations 1
DILUPBiCG:  Solving for U1z, Initial residual = 0.03613092218, Final residual = 0.001146731223, No Iterations 1
DILUPBiCG:  Solving for alpha2, Initial residual = 0.1387183323, Final residual = 0.003954536598, No Iterations 2
DILUPBiCG:  Solving for U2x, Initial residual = 0.08450424817, Final residual = 0.001186512822, No Iterations 1
DILUPBiCG:  Solving for U2y, Initial residual = 0.2051342605, Final residual = 0.003808646016, No Iterations 1
DILUPBiCG:  Solving for U2z, Initial residual = 0.03898845403, Final residual = 0.001831424468, No Iterations 1
DILUPBiCG:  Solving for alpha3, Initial residual = 0.1437448702, Final residual = 0.004038272123, No Iterations 2
DILUPBiCG:  Solving for U3x, Initial residual = 0.08644474468, Final residual = 0.001606562692, No Iterations 1
DILUPBiCG:  Solving for U3y, Initial residual = 0.1440980785, Final residual = 0.004635929769, No Iterations 1
DILUPBiCG:  Solving for U3z, Initial residual = 0.0415437085, Final residual = 0.002450700216, No Iterations 1
DILUPBiCG:  Solving for alpha4, Initial residual = 0.1486842011, Final residual = 0.004128096688, No Iterations 2
DILUPBiCG:  Solving for U4x, Initial residual = 0.0882256067, Final residual = 0.001975335545, No Iterations 1
DILUPBiCG:  Solving for U4y, Initial residual = 0.1033768312, Final residual = 0.004246658464, No Iterations 1
DILUPBiCG:  Solving for U4z, Initial residual = 0.04359373376, Final residual = 0.002963359513, No Iterations 1
DILUPBiCG:  Solving for alpha5, Initial residual = 0.1529058018, Final residual = 0.0139982502, No Iterations 1
DILUPBiCG:  Solving for U5x, Initial residual = 0.08985351599, Final residual = 0.002320623968, No Iterations 1
DILUPBiCG:  Solving for U5y, Initial residual = 0.1040385953, Final residual = 0.004111739996, No Iterations 1
DILUPBiCG:  Solving for U5z, Initial residual = 0.04498054117, Final residual = 0.003376738653, No Iterations 1
DILUPBiCG:  Solving for alpha6, Initial residual = 0.1562295118, Final residual = 0.01330189487, No Iterations 1
DILUPBiCG:  Solving for U6x, Initial residual = 0.09122249923, Final residual = 0.002643260022, No Iterations 1
DILUPBiCG:  Solving for U6y, Initial residual = 0.113249591, Final residual = 0.0041594076, No Iterations 1
DILUPBiCG:  Solving for U6z, Initial residual = 0.04572861749, Final residual = 0.003703622021, No Iterations 1
DILUPBiCG:  Solving for alpha7, Initial residual = 0.1591255003, Final residual = 0.01272839191, No Iterations 1
DILUPBiCG:  Solving for U7x, Initial residual = 0.09227732399, Final residual = 0.002936356609, No Iterations 1
DILUPBiCG:  Solving for U7y, Initial residual = 0.1227377326, Final residual = 0.00414774708, No Iterations 1
DILUPBiCG:  Solving for U7z, Initial residual = 0.04592685602, Final residual = 0.003955151248, No Iterations 1
DILUPBiCG:  Solving for alpha8, Initial residual = 0.1613704193, Final residual = 0.01233278616, No Iterations 1
DILUPBiCG:  Solving for U8x, Initial residual = 0.09296607828, Final residual = 0.003173843124, No Iterations 1
DILUPBiCG:  Solving for U8y, Initial residual = 0.1388379624, Final residual = 0.004139927432, No Iterations 1
DILUPBiCG:  Solving for U8z, Initial residual = 0.04588081282, Final residual = 0.004128752332, No Iterations 1
DILUPBiCG:  Solving for alpha9, Initial residual = 0.1665609879, Final residual = 0.01188804264, No Iterations 1
DILUPBiCG:  Solving for U9x, Initial residual = 0.09353628266, Final residual = 0.003525915322, No Iterations 1
DILUPBiCG:  Solving for U9y, Initial residual = 0.1806879951, Final residual = 0.003874073284, No Iterations 1
DILUPBiCG:  Solving for U9z, Initial residual = 0.0454941087, Final residual = 0.004309733222, No Iterations 1
DILUPBiCG:  Solving for alpha10, Initial residual = 0.1710262954, Final residual = 0.01160905339, No Iterations 1
DILUPBiCG:  Solving for U10x, Initial residual = 0.09333425711, Final residual = 0.00374810853, No Iterations 1
DILUPBiCG:  Solving for U10y, Initial residual = 0.2006459557, Final residual = 0.00337360495, No Iterations 1
DILUPBiCG:  Solving for U10z, Initial residual = 0.04490189561, Final residual = 0.004362603541, No Iterations 1
DILUPBiCG:  Solving for alpha11, Initial residual = 0.1729311394, Final residual = 0.01125023592, No Iterations 1
DILUPBiCG:  Solving for U11x, Initial residual = 0.09260012084, Final residual = 0.003867011101, No Iterations 1
DILUPBiCG:  Solving for U11y, Initial residual = 0.1992785258, Final residual = 0.002841198799, No Iterations 1
DILUPBiCG:  Solving for U11z, Initial residual = 0.04425889994, Final residual = 0.004345172797, No Iterations 1
DILUPBiCG:  Solving for alpha12, Initial residual = 0.1740775199, Final residual = 0.01087267686, No Iterations 1
DILUPBiCG:  Solving for U12x, Initial residual = 0.09149282592, Final residual = 0.003899174967, No Iterations 1
DILUPBiCG:  Solving for U12y, Initial residual = 0.1926087823, Final residual = 0.00244536677, No Iterations 1
DILUPBiCG:  Solving for U12z, Initial residual = 0.04366797284, Final residual = 0.004298486067, No Iterations 1
DILUPBiCG:  Solving for alpha13, Initial residual = 0.1742804432, Final residual = 0.01055280323, No Iterations 1
DILUPBiCG:  Solving for U13x, Initial residual = 0.09018163871, Final residual = 0.003902856212, No Iterations 1
DILUPBiCG:  Solving for U13y, Initial residual = 0.1847192724, Final residual = 0.002116785526, No Iterations 1
DILUPBiCG:  Solving for U13z, Initial residual = 0.04329124809, Final residual = 0.004235693954, No Iterations 1
DILUPBiCG:  Solving for alpha14, Initial residual = 0.1853176628, Final residual = 0.009947905123, No Iterations 1
DILUPBiCG:  Solving for U14x, Initial residual = 0.08537426676, Final residual = 0.003578579236, No Iterations 1
DILUPBiCG:  Solving for U14y, Initial residual = 0.1862901758, Final residual = 0.001302782872, No Iterations 1
DILUPBiCG:  Solving for U14z, Initial residual = 0.046666056, Final residual = 0.003741903051, No Iterations 1
DILUPBiCG:  Solving for alpha15, Initial residual = 0.1980054969, Final residual = 0.009852959635, No Iterations 1
DILUPBiCG:  Solving for U15x, Initial residual = 0.08614571853, Final residual = 0.003017215776, No Iterations 1
DILUPBiCG:  Solving for U15y, Initial residual = 0.2073049155, Final residual = 0.0009574138137, No Iterations 1
DILUPBiCG:  Solving for U15z, Initial residual = 0.05446617453, Final residual = 0.003059040287, No Iterations 1
DILUPBiCG:  Solving for alpha16, Initial residual = 0.2083931538, Final residual = 0.009735420961, No Iterations 1
DILUPBiCG:  Solving for U16x, Initial residual = 0.08895776742, Final residual = 0.002521270004, No Iterations 1
DILUPBiCG:  Solving for U16y, Initial residual = 0.2253401964, Final residual = 0.0007901144449, No Iterations 1
DILUPBiCG:  Solving for U16z, Initial residual = 0.06188154501, Final residual = 0.002645948549, No Iterations 1
DILUPBiCG:  Solving for alpha17, Initial residual = 0.2176871615, Final residual = 0.009624001795, No Iterations 1
DILUPBiCG:  Solving for U17x, Initial residual = 0.09207746467, Final residual = 0.002179981753, No Iterations 1
DILUPBiCG:  Solving for U17y, Initial residual = 0.2394659868, Final residual = 0.0006744544065, No Iterations 1
DILUPBiCG:  Solving for U17z, Initial residual = 0.0682365603, Final residual = 0.002407658076, No Iterations 1
ExecutionTime = 114.2 s ClockTime = 115 s


Time = 4
DILUPBiCG:  Solving for alpha1, Initial residual = 0.1298117725, Final residual = 0.002940586575, No Iterations 2
DILUPBiCG:  Solving for U1x, Initial residual = 0.02939239209, Final residual = 0.0004753291945, No Iterations 1
DILUPBiCG:  Solving for U1y, Initial residual = 0.1434855251, Final residual = 0.001664274128, No Iterations 1
DILUPBiCG:  Solving for U1z, Initial residual = 0.01313992011, Final residual = 0.000526138081, No Iterations 1
DILUPBiCG:  Solving for alpha2, Initial residual = 0.1357638991, Final residual = 0.003171852536, No Iterations 2
DILUPBiCG:  Solving for U2x, Initial residual = 0.03269776164, Final residual = 0.000779501584, No Iterations 1
DILUPBiCG:  Solving for U2y, Initial residual = 0.05885443896, Final residual = 0.00232732558, No Iterations 1
DILUPBiCG:  Solving for U2z, Initial residual = 0.01585351269, Final residual = 0.0008967284409, No Iterations 1
DILUPBiCG:  Solving for alpha3, Initial residual = 0.1392556355, Final residual = 0.0032636438, No Iterations 2
DILUPBiCG:  Solving for U3x, Initial residual = 0.03623101455, Final residual = 0.001083871218, No Iterations 1
DILUPBiCG:  Solving for U3y, Initial residual = 0.04539112349, Final residual = 0.002210047954, No Iterations 1
DILUPBiCG:  Solving for U3z, Initial residual = 0.01862241399, Final residual = 0.001289367625, No Iterations 1
DILUPBiCG:  Solving for alpha4, Initial residual = 0.1403268043, Final residual = 0.003232268377, No Iterations 2
DILUPBiCG:  Solving for U4x, Initial residual = 0.03962175923, Final residual = 0.001362666598, No Iterations 1
DILUPBiCG:  Solving for U4y, Initial residual = 0.04819878557, Final residual = 0.002277146378, No Iterations 1
DILUPBiCG:  Solving for U4z, Initial residual = 0.02118710841, Final residual = 0.001663341153, No Iterations 1
DILUPBiCG:  Solving for alpha5, Initial residual = 0.1408629311, Final residual = 0.00324206065, No Iterations 2
DILUPBiCG:  Solving for U5x, Initial residual = 0.04278027663, Final residual = 0.001617677628, No Iterations 1
DILUPBiCG:  Solving for U5y, Initial residual = 0.05367674223, Final residual = 0.002406553141, No Iterations 1
DILUPBiCG:  Solving for U5z, Initial residual = 0.02336773598, Final residual = 0.002002475415, No Iterations 1
DILUPBiCG:  Solving for alpha6, Initial residual = 0.1379037069, Final residual = 0.0134612496, No Iterations 1
DILUPBiCG:  Solving for U6x, Initial residual = 0.04576409348, Final residual = 0.001859554717, No Iterations 1
DILUPBiCG:  Solving for U6y, Initial residual = 0.06382909618, Final residual = 0.00271283696, No Iterations 1
DILUPBiCG:  Solving for U6z, Initial residual = 0.02515821224, Final residual = 0.002304245697, No Iterations 1
DILUPBiCG:  Solving for alpha7, Initial residual = 0.1348056648, Final residual = 0.01280935593, No Iterations 1
DILUPBiCG:  Solving for U7x, Initial residual = 0.04854380499, Final residual = 0.002088785266, No Iterations 1
DILUPBiCG:  Solving for U7y, Initial residual = 0.07790915933, Final residual = 0.003005214634, No Iterations 1
DILUPBiCG:  Solving for U7z, Initial residual = 0.02652806574, Final residual = 0.002571658666, No Iterations 1
DILUPBiCG:  Solving for alpha8, Initial residual = 0.1318548173, Final residual = 0.01234036847, No Iterations 1
DILUPBiCG:  Solving for U8x, Initial residual = 0.05086398632, Final residual = 0.002288750948, No Iterations 1
DILUPBiCG:  Solving for U8y, Initial residual = 0.09758454384, Final residual = 0.003225596245, No Iterations 1
DILUPBiCG:  Solving for U8z, Initial residual = 0.02759840356, Final residual = 0.0001366038392, No Iterations 2
DILUPBiCG:  Solving for alpha9, Initial residual = 0.1228754552, Final residual = 0.0119401237, No Iterations 1
DILUPBiCG:  Solving for U9x, Initial residual = 0.05462481779, Final residual = 0.002613793776, No Iterations 1
DILUPBiCG:  Solving for U9y, Initial residual = 0.1397044186, Final residual = 0.00325634865, No Iterations 1
DILUPBiCG:  Solving for U9z, Initial residual = 0.02919569184, Final residual = 0.0001582337693, No Iterations 2
DILUPBiCG:  Solving for alpha10, Initial residual = 0.1146000177, Final residual = 0.002212215506, No Iterations 2
DILUPBiCG:  Solving for U10x, Initial residual = 0.0574802995, Final residual = 0.002855449085, No Iterations 1
DILUPBiCG:  Solving for U10y, Initial residual = 0.1641174094, Final residual = 0.002952200184, No Iterations 1
DILUPBiCG:  Solving for U10z, Initial residual = 0.03016916498, Final residual = 0.0001754344839, No Iterations 2
DILUPBiCG:  Solving for alpha11, Initial residual = 0.107281081, Final residual = 0.003010075521, No Iterations 2
DILUPBiCG:  Solving for U11x, Initial residual = 0.05968346396, Final residual = 0.003034196656, No Iterations 1
DILUPBiCG:  Solving for U11y, Initial residual = 0.1638805128, Final residual = 0.002453689346, No Iterations 1
DILUPBiCG:  Solving for U11z, Initial residual = 0.03076308744, Final residual = 0.0001897570774, No Iterations 2
DILUPBiCG:  Solving for alpha12, Initial residual = 0.1039297985, Final residual = 0.009545659848, No Iterations 1
DILUPBiCG:  Solving for U12x, Initial residual = 0.06130584651, Final residual = 0.003155700232, No Iterations 1
DILUPBiCG:  Solving for U12y, Initial residual = 0.1528323892, Final residual = 0.002011653146, No Iterations 1
DILUPBiCG:  Solving for U12z, Initial residual = 0.03108764276, Final residual = 0.000203750431, No Iterations 2
DILUPBiCG:  Solving for alpha13, Initial residual = 0.1041170285, Final residual = 0.008182033841, No Iterations 1
DILUPBiCG:  Solving for U13x, Initial residual = 0.0623073976, Final residual = 0.003230612429, No Iterations 1
DILUPBiCG:  Solving for U13y, Initial residual = 0.145267187, Final residual = 0.001720960752, No Iterations 1
DILUPBiCG:  Solving for U13z, Initial residual = 0.03122088761, Final residual = 0.0002166428116, No Iterations 2
DILUPBiCG:  Solving for alpha14, Initial residual = 0.1250817738, Final residual = 0.006070029836, No Iterations 1
DILUPBiCG:  Solving for U14x, Initial residual = 0.06301561092, Final residual = 0.003224002173, No Iterations 1
DILUPBiCG:  Solving for U14y, Initial residual = 0.1401886786, Final residual = 0.001047723711, No Iterations 1
DILUPBiCG:  Solving for U14z, Initial residual = 0.03262732452, Final residual = 0.0002940119371, No Iterations 2
DILUPBiCG:  Solving for alpha15, Initial residual = 0.1389380334, Final residual = 0.005869648406, No Iterations 1
DILUPBiCG:  Solving for U15x, Initial residual = 0.06356724509, Final residual = 0.002999138858, No Iterations 1
DILUPBiCG:  Solving for U15y, Initial residual = 0.1503637018, Final residual = 0.0007498607456, No Iterations 1
DILUPBiCG:  Solving for U15z, Initial residual = 0.03601628241, Final residual = 0.00029283479, No Iterations 2
DILUPBiCG:  Solving for alpha16, Initial residual = 0.1404778031, Final residual = 0.005841067834, No Iterations 1
DILUPBiCG:  Solving for U16x, Initial residual = 0.0649374206, Final residual = 0.002755434498, No Iterations 1
DILUPBiCG:  Solving for U16y, Initial residual = 0.1583868172, Final residual = 0.0006003470351, No Iterations 1
DILUPBiCG:  Solving for U16z, Initial residual = 0.03950882246, Final residual = 0.00335473979, No Iterations 1
DILUPBiCG:  Solving for alpha17, Initial residual = 0.1396106778, Final residual = 0.005616131934, No Iterations 1
DILUPBiCG:  Solving for U17x, Initial residual = 0.06648170892, Final residual = 0.002557145745, No Iterations 1
DILUPBiCG:  Solving for U17y, Initial residual = 0.1645462808, Final residual = 0.0005098701838, No Iterations 1
DILUPBiCG:  Solving for U17z, Initial residual = 0.04247091773, Final residual = 0.003142796844, No Iterations 1
ExecutionTime = 145.45 s ClockTime = 146 s


Time = 5
DILUPBiCG:  Solving for alpha1, Initial residual = 0.1035012164, Final residual = 0.001862266698, No Iterations 2
DILUPBiCG:  Solving for U1x, Initial residual = 0.01094004133, Final residual = 0.0002700057546, No Iterations 1
DILUPBiCG:  Solving for U1y, Initial residual = 0.02859516137, Final residual = 0.0009886088746, No Iterations 1
DILUPBiCG:  Solving for U1z, Initial residual = 0.005219195839, Final residual = 0.0002510681956, No Iterations 1
DILUPBiCG:  Solving for alpha2, Initial residual = 0.1063841557, Final residual = 0.001959999848, No Iterations 2
DILUPBiCG:  Solving for U2x, Initial residual = 0.01358438661, Final residual = 0.0004668626708, No Iterations 1
DILUPBiCG:  Solving for U2y, Initial residual = 0.02009251527, Final residual = 0.001012465714, No Iterations 1
DILUPBiCG:  Solving for U2z, Initial residual = 0.007155874362, Final residual = 0.0004745404009, No Iterations 1
DILUPBiCG:  Solving for alpha3, Initial residual = 0.1068355923, Final residual = 0.001951528103, No Iterations 2
DILUPBiCG:  Solving for U3x, Initial residual = 0.01656451266, Final residual = 0.0006789268267, No Iterations 1
DILUPBiCG:  Solving for U3y, Initial residual = 0.02434059735, Final residual = 0.001260526743, No Iterations 1
DILUPBiCG:  Solving for U3z, Initial residual = 0.009268513285, Final residual = 0.0007530200445, No Iterations 1
DILUPBiCG:  Solving for alpha4, Initial residual = 0.1063340543, Final residual = 0.001894635893, No Iterations 2
DILUPBiCG:  Solving for U4x, Initial residual = 0.01956478858, Final residual = 0.0008878402242, No Iterations 1
DILUPBiCG:  Solving for U4y, Initial residual = 0.02749198125, Final residual = 0.001349761514, No Iterations 1
DILUPBiCG:  Solving for U4z, Initial residual = 0.01134606753, Final residual = 0.001052927895, No Iterations 1
DILUPBiCG:  Solving for alpha5, Initial residual = 0.1075372277, Final residual = 0.001888040614, No Iterations 2
DILUPBiCG:  Solving for U5x, Initial residual = 0.02250732081, Final residual = 0.001093793501, No Iterations 1
DILUPBiCG:  Solving for U5y, Initial residual = 0.032721519, Final residual = 0.001577847011, No Iterations 1
DILUPBiCG:  Solving for U5z, Initial residual = 0.01326642791, Final residual = 5.263346956e-05, No Iterations 2
DILUPBiCG:  Solving for alpha6, Initial residual = 0.1087330354, Final residual = 0.001944896937, No Iterations 2
DILUPBiCG:  Solving for U6x, Initial residual = 0.02540847972, Final residual = 0.001300957241, No Iterations 1
DILUPBiCG:  Solving for U6y, Initial residual = 0.04128497409, Final residual = 0.001921531383, No Iterations 1
DILUPBiCG:  Solving for U6z, Initial residual = 0.01500280894, Final residual = 6.777123949e-05, No Iterations 2
DILUPBiCG:  Solving for alpha7, Initial residual = 0.1073301872, Final residual = 0.001862961796, No Iterations 2
DILUPBiCG:  Solving for U7x, Initial residual = 0.028227644, Final residual = 0.00150362522, No Iterations 1
DILUPBiCG:  Solving for U7y, Initial residual = 0.05386885779, Final residual = 0.002251125573, No Iterations 1
DILUPBiCG:  Solving for U7z, Initial residual = 0.01648527975, Final residual = 8.130200181e-05, No Iterations 2
DILUPBiCG:  Solving for alpha8, Initial residual = 0.1058530437, Final residual = 0.001798596555, No Iterations 2
DILUPBiCG:  Solving for U8x, Initial residual = 0.03068043413, Final residual = 0.001683220922, No Iterations 1
DILUPBiCG:  Solving for U8y, Initial residual = 0.07108183612, Final residual = 0.002504446908, No Iterations 1
DILUPBiCG:  Solving for U8z, Initial residual = 0.01839047713, Final residual = 8.874679399e-05, No Iterations 2
DILUPBiCG:  Solving for alpha9, Initial residual = 0.1020456116, Final residual = 0.001752540316, No Iterations 2
DILUPBiCG:  Solving for U9x, Initial residual = 0.03481928418, Final residual = 0.001985698625, No Iterations 1
DILUPBiCG:  Solving for U9y, Initial residual = 0.1114655647, Final residual = 0.00271658186, No Iterations 1
DILUPBiCG:  Solving for U9z, Initial residual = 0.02041526665, Final residual = 0.000104230465, No Iterations 2
DILUPBiCG:  Solving for alpha10, Initial residual = 0.09603817623, Final residual = 0.004006466311, No Iterations 2
DILUPBiCG:  Solving for U10x, Initial residual = 0.03820005082, Final residual = 0.002224604328, No Iterations 1
DILUPBiCG:  Solving for U10y, Initial residual = 0.1394085464, Final residual = 0.002584863888, No Iterations 1
DILUPBiCG:  Solving for U10z, Initial residual = 0.02185230516, Final residual = 0.0001203130001, No Iterations 2
DILUPBiCG:  Solving for alpha11, Initial residual = 0.09188806528, Final residual = 0.001584710977, No Iterations 2
DILUPBiCG:  Solving for U11x, Initial residual = 0.04104214734, Final residual = 0.002412885355, No Iterations 1
DILUPBiCG:  Solving for U11y, Initial residual = 0.1465175554, Final residual = 0.002227168614, No Iterations 1
DILUPBiCG:  Solving for U11z, Initial residual = 0.02288114763, Final residual = 0.0001374349655, No Iterations 2
DILUPBiCG:  Solving for alpha12, Initial residual = 0.08887524744, Final residual = 0.001374294834, No Iterations 2
DILUPBiCG:  Solving for U12x, Initial residual = 0.04340307202, Final residual = 0.002555559627, No Iterations 1
DILUPBiCG:  Solving for U12y, Initial residual = 0.1346449601, Final residual = 0.001778788517, No Iterations 1
DILUPBiCG:  Solving for U12z, Initial residual = 0.02359721656, Final residual = 0.000157258159, No Iterations 2
DILUPBiCG:  Solving for alpha13, Initial residual = 0.08646065311, Final residual = 0.008318675223, No Iterations 1
DILUPBiCG:  Solving for U13x, Initial residual = 0.04520939328, Final residual = 0.002660170464, No Iterations 1
DILUPBiCG:  Solving for U13y, Initial residual = 0.1261999848, Final residual = 0.001496125343, No Iterations 1
DILUPBiCG:  Solving for U13z, Initial residual = 0.02402938015, Final residual = 0.0001811725365, No Iterations 2
DILUPBiCG:  Solving for alpha14, Initial residual = 0.0871032918, Final residual = 0.006192147146, No Iterations 1
DILUPBiCG:  Solving for U14x, Initial residual = 0.04856339028, Final residual = 0.002770399036, No Iterations 1
DILUPBiCG:  Solving for U14y, Initial residual = 0.118346553, Final residual = 0.0009104416069, No Iterations 1
DILUPBiCG:  Solving for U14z, Initial residual = 0.02523679433, Final residual = 0.000737457002, No Iterations 2
DILUPBiCG:  Solving for alpha15, Initial residual = 0.09131941423, Final residual = 0.005390278713, No Iterations 1
DILUPBiCG:  Solving for U15x, Initial residual = 0.04945812259, Final residual = 0.002625036324, No Iterations 1
DILUPBiCG:  Solving for U15y, Initial residual = 0.1253676701, Final residual = 0.0006546954143, No Iterations 1
DILUPBiCG:  Solving for U15z, Initial residual = 0.02712511227, Final residual = 0.002678164311, No Iterations 2
DILUPBiCG:  Solving for alpha16, Initial residual = 0.09174255735, Final residual = 0.005025096993, No Iterations 1
DILUPBiCG:  Solving for U16x, Initial residual = 0.05043298998, Final residual = 0.002475779163, No Iterations 1
DILUPBiCG:  Solving for U16y, Initial residual = 0.1301774423, Final residual = 0.0005166912465, No Iterations 1
DILUPBiCG:  Solving for U16z, Initial residual = 0.02875559726, Final residual = 0.00208190152, No Iterations 2
DILUPBiCG:  Solving for alpha17, Initial residual = 0.09042121356, Final residual = 0.004808375687, No Iterations 1
DILUPBiCG:  Solving for U17x, Initial residual = 0.05156327978, Final residual = 0.002375395359, No Iterations 1
DILUPBiCG:  Solving for U17y, Initial residual = 0.1335719893, Final residual = 0.0004357706126, No Iterations 1
DILUPBiCG:  Solving for U17z, Initial residual = 0.03058060014, Final residual = 0.000735205834, No Iterations 2
ExecutionTime = 177.2 s ClockTime = 178 s


Time = 6
DILUPBiCG:  Solving for alpha1, Initial residual = 0.08368873514, Final residual = 0.00124979294, No Iterations 2
DILUPBiCG:  Solving for U1x, Initial residual = 0.004254029257, Final residual = 0.0001345944031, No Iterations 1
DILUPBiCG:  Solving for U1y, Initial residual = 0.008537078398, Final residual = 0.0003645667787, No Iterations 1
DILUPBiCG:  Solving for U1z, Initial residual = 0.002214389211, Final residual = 0.0001508443305, No Iterations 1
DILUPBiCG:  Solving for alpha2, Initial residual = 0.08452174235, Final residual = 0.001300079765, No Iterations 2
DILUPBiCG:  Solving for U2x, Initial residual = 0.006001485343, Final residual = 0.0002499895524, No Iterations 1
DILUPBiCG:  Solving for U2y, Initial residual = 0.009703452853, Final residual = 0.0004798252345, No Iterations 1
DILUPBiCG:  Solving for U2z, Initial residual = 0.003464990308, Final residual = 0.00030934079, No Iterations 1
DILUPBiCG:  Solving for alpha3, Initial residual = 0.08482498143, Final residual = 0.001309141212, No Iterations 2
DILUPBiCG:  Solving for U3x, Initial residual = 0.008153090663, Final residual = 0.0003951012696, No Iterations 1
DILUPBiCG:  Solving for U3y, Initial residual = 0.0132280603, Final residual = 0.0006901682206, No Iterations 1
DILUPBiCG:  Solving for U3z, Initial residual = 0.004935935385, Final residual = 1.661068453e-05, No Iterations 2
DILUPBiCG:  Solving for alpha4, Initial residual = 0.08487113328, Final residual = 0.001359634289, No Iterations 2
DILUPBiCG:  Solving for U4x, Initial residual = 0.01046314007, Final residual = 0.0005558574803, No Iterations 1
DILUPBiCG:  Solving for U4y, Initial residual = 0.01671839538, Final residual = 0.0008356051145, No Iterations 1
DILUPBiCG:  Solving for U4z, Initial residual = 0.006465057341, Final residual = 3.076923519e-05, No Iterations 2
DILUPBiCG:  Solving for alpha5, Initial residual = 0.08600125807, Final residual = 0.001735232854, No Iterations 2
DILUPBiCG:  Solving for U5x, Initial residual = 0.01284740501, Final residual = 0.0007300777735, No Iterations 1
DILUPBiCG:  Solving for U5y, Initial residual = 0.02108459517, Final residual = 0.001071838776, No Iterations 1
DILUPBiCG:  Solving for U5z, Initial residual = 0.008353465195, Final residual = 7.483538241e-05, No Iterations 2
DILUPBiCG:  Solving for alpha6, Initial residual = 0.08726627877, Final residual = 0.001604877558, No Iterations 2
DILUPBiCG:  Solving for U6x, Initial residual = 0.01529280328, Final residual = 0.0009201639512, No Iterations 1
DILUPBiCG:  Solving for U6y, Initial residual = 0.02786084512, Final residual = 0.001391231881, No Iterations 1
DILUPBiCG:  Solving for U6z, Initial residual = 0.009842556924, Final residual = 8.93085811e-05, No Iterations 2
DILUPBiCG:  Solving for alpha7, Initial residual = 0.08663267642, Final residual = 0.001462504252, No Iterations 2
DILUPBiCG:  Solving for U7x, Initial residual = 0.01775332571, Final residual = 0.001118851941, No Iterations 1
DILUPBiCG:  Solving for U7y, Initial residual = 0.03838826704, Final residual = 0.001705863809, No Iterations 1
DILUPBiCG:  Solving for U7z, Initial residual = 0.0111906603, Final residual = 0.0001027088877, No Iterations 2
DILUPBiCG:  Solving for alpha8, Initial residual = 0.08587993931, Final residual = 0.001403564675, No Iterations 2
DILUPBiCG:  Solving for U8x, Initial residual = 0.01996045494, Final residual = 0.001298025813, No Iterations 1
DILUPBiCG:  Solving for U8y, Initial residual = 0.05265668899, Final residual = 0.001951474457, No Iterations 1
DILUPBiCG:  Solving for U8z, Initial residual = 0.01275360438, Final residual = 0.0001679835355, No Iterations 2
DILUPBiCG:  Solving for alpha9, Initial residual = 0.08381557928, Final residual = 0.001324711135, No Iterations 2
DILUPBiCG:  Solving for U9x, Initial residual = 0.02379043921, Final residual = 0.001599813746, No Iterations 1
DILUPBiCG:  Solving for U9y, Initial residual = 0.0894836023, Final residual = 0.002258115443, No Iterations 1
DILUPBiCG:  Solving for U9z, Initial residual = 0.01474443946, Final residual = 0.0002223958858, No Iterations 2
DILUPBiCG:  Solving for alpha10, Initial residual = 0.07975261499, Final residual = 0.001201873891, No Iterations 2
DILUPBiCG:  Solving for U10x, Initial residual = 0.02705149202, Final residual = 0.001838056639, No Iterations 1
DILUPBiCG:  Solving for U10y, Initial residual = 0.1195451687, Final residual = 0.002264832804, No Iterations 1
DILUPBiCG:  Solving for U10z, Initial residual = 0.01626701436, Final residual = 0.0002209095989, No Iterations 2
DILUPBiCG:  Solving for alpha11, Initial residual = 0.07759167411, Final residual = 0.001124911729, No Iterations 2
DILUPBiCG:  Solving for U11x, Initial residual = 0.02990039195, Final residual = 0.00202767216, No Iterations 1
DILUPBiCG:  Solving for U11y, Initial residual = 0.1326264491, Final residual = 0.002036050775, No Iterations 1
DILUPBiCG:  Solving for U11z, Initial residual = 0.01743326832, Final residual = 0.0001612127601, No Iterations 2
DILUPBiCG:  Solving for alpha12, Initial residual = 0.07594593055, Final residual = 0.001078331082, No Iterations 2
DILUPBiCG:  Solving for U12x, Initial residual = 0.03238048612, Final residual = 0.002173681594, No Iterations 1
DILUPBiCG:  Solving for U12y, Initial residual = 0.1236650129, Final residual = 0.001634878277, No Iterations 1
DILUPBiCG:  Solving for U12z, Initial residual = 0.0183139008, Final residual = 9.684154938e-05, No Iterations 2
DILUPBiCG:  Solving for alpha13, Initial residual = 0.07437636826, Final residual = 0.001050744097, No Iterations 2
DILUPBiCG:  Solving for U13x, Initial residual = 0.03440353321, Final residual = 0.002281697779, No Iterations 1
DILUPBiCG:  Solving for U13y, Initial residual = 0.1147602481, Final residual = 0.001357782937, No Iterations 1
DILUPBiCG:  Solving for U13z, Initial residual = 0.01891053246, Final residual = 0.0001541609124, No Iterations 2
DILUPBiCG:  Solving for alpha14, Initial residual = 0.06840628343, Final residual = 0.006180430415, No Iterations 1
DILUPBiCG:  Solving for U14x, Initial residual = 0.0389607546, Final residual = 0.002423295796, No Iterations 1
DILUPBiCG:  Solving for U14y, Initial residual = 0.1056435039, Final residual = 0.0008331191948, No Iterations 1
DILUPBiCG:  Solving for U14z, Initial residual = 0.02034581187, Final residual = 0.0001684887749, No Iterations 2
DILUPBiCG:  Solving for alpha15, Initial residual = 0.06923218177, Final residual = 0.005410363913, No Iterations 1
DILUPBiCG:  Solving for U15x, Initial residual = 0.04020285542, Final residual = 0.002302520681, No Iterations 1
DILUPBiCG:  Solving for U15y, Initial residual = 0.1112615995, Final residual = 0.0006085308667, No Iterations 1
DILUPBiCG:  Solving for U15z, Initial residual = 0.02194953703, Final residual = 0.0001618553179, No Iterations 2
DILUPBiCG:  Solving for alpha16, Initial residual = 0.07154944844, Final residual = 0.004934327704, No Iterations 1
DILUPBiCG:  Solving for U16x, Initial residual = 0.0411112025, Final residual = 0.002186201394, No Iterations 1
DILUPBiCG:  Solving for U16y, Initial residual = 0.1146365843, Final residual = 0.0004790196843, No Iterations 1
DILUPBiCG:  Solving for U16z, Initial residual = 0.0230295584, Final residual = 0.0001679905489, No Iterations 2
DILUPBiCG:  Solving for alpha17, Initial residual = 0.07379299686, Final residual = 0.00464874969, No Iterations 1
DILUPBiCG:  Solving for U17x, Initial residual = 0.04198267323, Final residual = 0.002107942926, No Iterations 1
DILUPBiCG:  Solving for U17y, Initial residual = 0.1169310584, Final residual = 0.0004032987544, No Iterations 1
DILUPBiCG:  Solving for U17z, Initial residual = 0.0240809382, Final residual = 0.0001881349296, No Iterations 2
ExecutionTime = 209.23 s ClockTime = 210 s


Time = 7
DILUPBiCG:  Solving for alpha1, Initial residual = 0.06880328871, Final residual = 0.0009375742155, No Iterations 2
DILUPBiCG:  Solving for U1x, Initial residual = 0.001743156574, Final residual = 6.07159e-05, No Iterations 1
DILUPBiCG:  Solving for U1y, Initial residual = 0.003151185353, Final residual = 0.0001273309308, No Iterations 1
DILUPBiCG:  Solving for U1z, Initial residual = 0.0009703339681, Final residual = 9.476959836e-05, No Iterations 1
DILUPBiCG:  Solving for alpha2, Initial residual = 0.06963183577, Final residual = 0.001283261774, No Iterations 2
DILUPBiCG:  Solving for U2x, Initial residual = 0.002840960487, Final residual = 0.0001282071809, No Iterations 1
DILUPBiCG:  Solving for U2y, Initial residual = 0.004432311639, Final residual = 0.0002214502946, No Iterations 1
DILUPBiCG:  Solving for U2z, Initial residual = 0.001738166736, Final residual = 4.268323177e-06, No Iterations 2
DILUPBiCG:  Solving for alpha3, Initial residual = 0.07012847915, Final residual = 0.001082952507, No Iterations 2
DILUPBiCG:  Solving for U3x, Initial residual = 0.004320289768, Final residual = 0.0002290922706, No Iterations 1
DILUPBiCG:  Solving for U3y, Initial residual = 0.007160097245, Final residual = 0.0003804933103, No Iterations 1
DILUPBiCG:  Solving for U3z, Initial residual = 0.002913315868, Final residual = 1.08760819e-05, No Iterations 2
DILUPBiCG:  Solving for alpha4, Initial residual = 0.07040186819, Final residual = 0.001037592722, No Iterations 2
DILUPBiCG:  Solving for U4x, Initial residual = 0.006017588411, Final residual = 0.0003555814693, No Iterations 1
DILUPBiCG:  Solving for U4y, Initial residual = 0.01011825902, Final residual = 0.0005187818741, No Iterations 1
DILUPBiCG:  Solving for U4z, Initial residual = 0.00407046475, Final residual = 1.975774609e-05, No Iterations 2
DILUPBiCG:  Solving for alpha5, Initial residual = 0.07149052499, Final residual = 0.001044555082, No Iterations 2
DILUPBiCG:  Solving for U5x, Initial residual = 0.007863382083, Final residual = 0.0005076728266, No Iterations 1
DILUPBiCG:  Solving for U5y, Initial residual = 0.01370366926, Final residual = 0.0007319891262, No Iterations 1
DILUPBiCG:  Solving for U5z, Initial residual = 0.005488460892, Final residual = 3.220087804e-05, No Iterations 2
DILUPBiCG:  Solving for alpha6, Initial residual = 0.07250983914, Final residual = 0.001056728374, No Iterations 2
DILUPBiCG:  Solving for U6x, Initial residual = 0.009831617634, Final residual = 0.0006922297827, No Iterations 1
DILUPBiCG:  Solving for U6y, Initial residual = 0.019033137, Final residual = 0.001011012431, No Iterations 1
DILUPBiCG:  Solving for U6z, Initial residual = 0.006713938819, Final residual = 4.317814679e-05, No Iterations 2
DILUPBiCG:  Solving for alpha7, Initial residual = 0.07226407187, Final residual = 0.001038987494, No Iterations 2
DILUPBiCG:  Solving for U7x, Initial residual = 0.01187850229, Final residual = 0.0009105023144, No Iterations 1
DILUPBiCG:  Solving for U7y, Initial residual = 0.02763005231, Final residual = 0.001296224691, No Iterations 1
DILUPBiCG:  Solving for U7z, Initial residual = 0.007873705147, Final residual = 5.37180446e-05, No Iterations 2
DILUPBiCG:  Solving for alpha8, Initial residual = 0.07187607816, Final residual = 0.001019407133, No Iterations 2
DILUPBiCG:  Solving for U8x, Initial residual = 0.01376568679, Final residual = 0.001121100421, No Iterations 1
DILUPBiCG:  Solving for U8y, Initial residual = 0.03912277561, Final residual = 0.001519792628, No Iterations 1
DILUPBiCG:  Solving for U8z, Initial residual = 0.009165082588, Final residual = 6.643367301e-05, No Iterations 2
DILUPBiCG:  Solving for alpha9, Initial residual = 0.07069433086, Final residual = 0.0009780398604, No Iterations 2
DILUPBiCG:  Solving for U9x, Initial residual = 0.01712823877, Final residual = 0.001489826002, No Iterations 1
DILUPBiCG:  Solving for U9y, Initial residual = 0.07180302596, Final residual = 0.001868600935, No Iterations 1
DILUPBiCG:  Solving for U9z, Initial residual = 0.01097467137, Final residual = 8.277369464e-05, No Iterations 2
DILUPBiCG:  Solving for alpha10, Initial residual = 0.06799302145, Final residual = 0.0008922944464, No Iterations 2
DILUPBiCG:  Solving for U10x, Initial residual = 0.02008959297, Final residual = 0.00177463166, No Iterations 1
DILUPBiCG:  Solving for U10y, Initial residual = 0.102449039, Final residual = 0.001979162871, No Iterations 1
DILUPBiCG:  Solving for U10z, Initial residual = 0.01241273629, Final residual = 9.229331545e-05, No Iterations 2
DILUPBiCG:  Solving for alpha11, Initial residual = 0.06662154535, Final residual = 0.0008497885642, No Iterations 2
DILUPBiCG:  Solving for U11x, Initial residual = 0.02274754752, Final residual = 0.001969735678, No Iterations 1
DILUPBiCG:  Solving for U11y, Initial residual = 0.1191361438, Final residual = 0.001850055991, No Iterations 1
DILUPBiCG:  Solving for U11z, Initial residual = 0.01354690148, Final residual = 9.547818869e-05, No Iterations 2
DILUPBiCG:  Solving for alpha12, Initial residual = 0.06561584146, Final residual = 0.0008376315127, No Iterations 2
DILUPBiCG:  Solving for U12x, Initial residual = 0.02513418276, Final residual = 0.002093596388, No Iterations 1
DILUPBiCG:  Solving for U12y, Initial residual = 0.1163196936, Final residual = 0.001543722326, No Iterations 1
DILUPBiCG:  Solving for U12z, Initial residual = 0.0144366465, Final residual = 9.4838144e-05, No Iterations 2
DILUPBiCG:  Solving for alpha13, Initial residual = 0.06466884387, Final residual = 0.0008308819003, No Iterations 2
DILUPBiCG:  Solving for U13x, Initial residual = 0.02714955662, Final residual = 0.002185515934, No Iterations 1
DILUPBiCG:  Solving for U13y, Initial residual = 0.1070458835, Final residual = 0.001269551396, No Iterations 1
DILUPBiCG:  Solving for U13z, Initial residual = 0.01508063183, Final residual = 9.183784347e-05, No Iterations 2
DILUPBiCG:  Solving for alpha14, Initial residual = 0.06071596891, Final residual = 0.00566651446, No Iterations 1
DILUPBiCG:  Solving for U14x, Initial residual = 0.03217537751, Final residual = 0.002226468887, No Iterations 1
DILUPBiCG:  Solving for U14y, Initial residual = 0.0974535402, Final residual = 0.0007891273311, No Iterations 1
DILUPBiCG:  Solving for U14z, Initial residual = 0.01661530436, Final residual = 7.997209959e-05, No Iterations 2
DILUPBiCG:  Solving for alpha15, Initial residual = 0.05961391779, Final residual = 0.005105048446, No Iterations 1
DILUPBiCG:  Solving for U15x, Initial residual = 0.03360135913, Final residual = 0.002068295737, No Iterations 1
DILUPBiCG:  Solving for U15y, Initial residual = 0.102435012, Final residual = 0.0005897973512, No Iterations 1
DILUPBiCG:  Solving for U15z, Initial residual = 0.01788163794, Final residual = 7.498624078e-05, No Iterations 2
DILUPBiCG:  Solving for alpha16, Initial residual = 0.06100114591, Final residual = 0.004702418241, No Iterations 1
DILUPBiCG:  Solving for U16x, Initial residual = 0.03440996784, Final residual = 0.001947733457, No Iterations 1
DILUPBiCG:  Solving for U16y, Initial residual = 0.1049967438, Final residual = 0.0004658434732, No Iterations 1
DILUPBiCG:  Solving for U16z, Initial residual = 0.01873658777, Final residual = 7.151388041e-05, No Iterations 2
DILUPBiCG:  Solving for alpha17, Initial residual = 0.06270529523, Final residual = 0.004455247119, No Iterations 1
DILUPBiCG:  Solving for U17x, Initial residual = 0.03508819827, Final residual = 0.001872866845, No Iterations 1
DILUPBiCG:  Solving for U17y, Initial residual = 0.1066533157, Final residual = 0.000394147798, No Iterations 1
DILUPBiCG:  Solving for U17z, Initial residual = 0.01951570107, Final residual = 6.958085879e-05, No Iterations 2
ExecutionTime = 241.11 s ClockTime = 242 s


Time = 8
DILUPBiCG:  Solving for alpha1, Initial residual = 0.05821867167, Final residual = 0.0007645163979, No Iterations 2
DILUPBiCG:  Solving for U1x, Initial residual = 0.000761552509, Final residual = 2.664212895e-05, No Iterations 1
DILUPBiCG:  Solving for U1y, Initial residual = 0.001011138098, Final residual = 4.278173499e-05, No Iterations 1
DILUPBiCG:  Solving for U1z, Initial residual = 0.0005234248978, Final residual = 1.679393678e-05, No Iterations 1
DILUPBiCG:  Solving for alpha2, Initial residual = 0.05913725686, Final residual = 0.00077731302, No Iterations 2
DILUPBiCG:  Solving for U2x, Initial residual = 0.001439683839, Final residual = 6.697276269e-05, No Iterations 1
DILUPBiCG:  Solving for U2y, Initial residual = 0.001921610665, Final residual = 9.789083928e-05, No Iterations 1
DILUPBiCG:  Solving for U2z, Initial residual = 0.0009744084584, Final residual = 4.798065234e-05, No Iterations 1
DILUPBiCG:  Solving for alpha3, Initial residual = 0.05966766257, Final residual = 0.0007952803435, No Iterations 2
DILUPBiCG:  Solving for U3x, Initial residual = 0.002440117128, Final residual = 0.0001387696839, No Iterations 1
DILUPBiCG:  Solving for U3y, Initial residual = 0.003713328558, Final residual = 0.0002040085484, No Iterations 1
DILUPBiCG:  Solving for U3z, Initial residual = 0.001774162553, Final residual = 0.0001640992935, No Iterations 1
DILUPBiCG:  Solving for alpha4, Initial residual = 0.06004615165, Final residual = 0.0007912428336, No Iterations 2
DILUPBiCG:  Solving for U4x, Initial residual = 0.003667748949, Final residual = 0.0002428883546, No Iterations 1
DILUPBiCG:  Solving for U4y, Initial residual = 0.005991770243, Final residual = 0.0003177358232, No Iterations 1
DILUPBiCG:  Solving for U4z, Initial residual = 0.002637620557, Final residual = 1.386070286e-05, No Iterations 2
DILUPBiCG:  Solving for alpha5, Initial residual = 0.06103092015, Final residual = 0.0008065237695, No Iterations 2
DILUPBiCG:  Solving for U5x, Initial residual = 0.005074444356, Final residual = 0.0003880584896, No Iterations 1
DILUPBiCG:  Solving for U5y, Initial residual = 0.008818277907, Final residual = 0.0004950187849, No Iterations 1
DILUPBiCG:  Solving for U5z, Initial residual = 0.003702557807, Final residual = 2.225453928e-05, No Iterations 2
DILUPBiCG:  Solving for alpha6, Initial residual = 0.06196377386, Final residual = 0.0008223687453, No Iterations 2
DILUPBiCG:  Solving for U6x, Initial residual = 0.006631439416, Final residual = 0.0006029122142, No Iterations 1
DILUPBiCG:  Solving for U6y, Initial residual = 0.01296402532, Final residual = 0.0007316014335, No Iterations 1
DILUPBiCG:  Solving for U6z, Initial residual = 0.004694858784, Final residual = 3.061274579e-05, No Iterations 2
DILUPBiCG:  Solving for alpha7, Initial residual = 0.06192176108, Final residual = 0.0008083229514, No Iterations 2
DILUPBiCG:  Solving for U7x, Initial residual = 0.008299297742, Final residual = 5.083431063e-06, No Iterations 3
DILUPBiCG:  Solving for U7y, Initial residual = 0.01982004527, Final residual = 0.0009804045547, No Iterations 1
DILUPBiCG:  Solving for U7z, Initial residual = 0.005670094696, Final residual = 3.896863556e-05, No Iterations 2
DILUPBiCG:  Solving for alpha8, Initial residual = 0.06175173845, Final residual = 0.0007933564152, No Iterations 2
DILUPBiCG:  Solving for U8x, Initial residual = 0.009875847149, Final residual = 0.0001982059928, No Iterations 2
DILUPBiCG:  Solving for U8y, Initial residual = 0.02891235051, Final residual = 0.001177616416, No Iterations 1
DILUPBiCG:  Solving for U8z, Initial residual = 0.006725243065, Final residual = 4.81011057e-05, No Iterations 2
DILUPBiCG:  Solving for alpha9, Initial residual = 0.0610966923, Final residual = 0.0007630004922, No Iterations 2
DILUPBiCG:  Solving for U9x, Initial residual = 0.01276036786, Final residual = 0.0001291418984, No Iterations 2
DILUPBiCG:  Solving for U9y, Initial residual = 0.05723638875, Final residual = 0.001534007725, No Iterations 1
DILUPBiCG:  Solving for U9z, Initial residual = 0.008309459473, Final residual = 6.127250267e-05, No Iterations 2
DILUPBiCG:  Solving for alpha10, Initial residual = 0.05924592962, Final residual = 0.0006999172242, No Iterations 2
DILUPBiCG:  Solving for U10x, Initial residual = 0.01538568327, Final residual = 0.0001341319051, No Iterations 2
DILUPBiCG:  Solving for U10y, Initial residual = 0.08740486044, Final residual = 0.001720019186, No Iterations 1
DILUPBiCG:  Solving for U10z, Initial residual = 0.009613229596, Final residual = 7.080067034e-05, No Iterations 2
DILUPBiCG:  Solving for alpha11, Initial residual = 0.05832873376, Final residual = 0.0006699325367, No Iterations 2
DILUPBiCG:  Solving for U11x, Initial residual = 0.01780840644, Final residual = 0.0001643896164, No Iterations 2
DILUPBiCG:  Solving for U11y, Initial residual = 0.1068386884, Final residual = 0.001682036549, No Iterations 1
DILUPBiCG:  Solving for U11z, Initial residual = 0.0106747887, Final residual = 7.673813906e-05, No Iterations 2
DILUPBiCG:  Solving for alpha12, Initial residual = 0.05768636739, Final residual = 0.00569914618, No Iterations 1
DILUPBiCG:  Solving for U12x, Initial residual = 0.02004310953, Final residual = 0.0002986551245, No Iterations 2
DILUPBiCG:  Solving for U12y, Initial residual = 0.1109739795, Final residual = 0.001483942121, No Iterations 1
DILUPBiCG:  Solving for U12z, Initial residual = 0.01154072003, Final residual = 7.992024448e-05, No Iterations 2
DILUPBiCG:  Solving for alpha13, Initial residual = 0.05706944704, Final residual = 0.005581526452, No Iterations 1
DILUPBiCG:  Solving for U13x, Initial residual = 0.02197328663, Final residual = 0.00137424988, No Iterations 2
DILUPBiCG:  Solving for U13y, Initial residual = 0.1017090965, Final residual = 0.001215338792, No Iterations 1
DILUPBiCG:  Solving for U13z, Initial residual = 0.01219236741, Final residual = 8.097190699e-05, No Iterations 2
DILUPBiCG:  Solving for alpha14, Initial residual = 0.05440204297, Final residual = 0.005009658283, No Iterations 1
DILUPBiCG:  Solving for U14x, Initial residual = 0.02711950852, Final residual = 0.002344528323, No Iterations 1
DILUPBiCG:  Solving for U14y, Initial residual = 0.09185431123, Final residual = 0.0007672807017, No Iterations 1
DILUPBiCG:  Solving for U14z, Initial residual = 0.01375486617, Final residual = 7.712836503e-05, No Iterations 2
DILUPBiCG:  Solving for alpha15, Initial residual = 0.05302322995, Final residual = 0.004613503671, No Iterations 1
DILUPBiCG:  Solving for U15x, Initial residual = 0.02863479856, Final residual = 0.001969161493, No Iterations 1
DILUPBiCG:  Solving for U15y, Initial residual = 0.09657766983, Final residual = 0.0005889770936, No Iterations 1
DILUPBiCG:  Solving for U15z, Initial residual = 0.01482739229, Final residual = 7.378887357e-05, No Iterations 2
DILUPBiCG:  Solving for alpha16, Initial residual = 0.05358252565, Final residual = 0.004347765982, No Iterations 1
DILUPBiCG:  Solving for U16x, Initial residual = 0.02936959363, Final residual = 0.001789922654, No Iterations 1
DILUPBiCG:  Solving for U16y, Initial residual = 0.09867244141, Final residual = 0.0004695820363, No Iterations 1
DILUPBiCG:  Solving for U16z, Initial residual = 0.01555252519, Final residual = 7.08329235e-05, No Iterations 2
DILUPBiCG:  Solving for alpha17, Initial residual = 0.05475940775, Final residual = 0.004183397702, No Iterations 1
DILUPBiCG:  Solving for U17x, Initial residual = 0.02990649025, Final residual = 0.001698718687, No Iterations 1
DILUPBiCG:  Solving for U17y, Initial residual = 0.09992647267, Final residual = 0.0004012122239, No Iterations 1
DILUPBiCG:  Solving for U17z, Initial residual = 0.01615913436, Final residual = 6.913781825e-05, No Iterations 2
ExecutionTime = 273.49 s ClockTime = 275 s


Time = 9
DILUPBiCG:  Solving for alpha1, Initial residual = 0.05034762954, Final residual = 0.0006279417708, No Iterations 2
DILUPBiCG:  Solving for U1x, Initial residual = 0.0003540106979, Final residual = 1.183168979e-05, No Iterations 1
DILUPBiCG:  Solving for U1y, Initial residual = 0.0003248269997, Final residual = 1.338532053e-05, No Iterations 1
DILUPBiCG:  Solving for U1z, Initial residual = 0.0002685144235, Final residual = 9.509737867e-06, No Iterations 1
DILUPBiCG:  Solving for alpha2, Initial residual = 0.0512763046, Final residual = 0.0006389253297, No Iterations 2
DILUPBiCG:  Solving for U2x, Initial residual = 0.0007718927365, Final residual = 3.608416678e-05, No Iterations 1
DILUPBiCG:  Solving for U2y, Initial residual = 0.0008299971017, Final residual = 4.252018557e-05, No Iterations 1
DILUPBiCG:  Solving for U2z, Initial residual = 0.0005773056194, Final residual = 2.834225764e-05, No Iterations 1
DILUPBiCG:  Solving for alpha3, Initial residual = 0.0518654023, Final residual = 0.0006406905711, No Iterations 2
DILUPBiCG:  Solving for U3x, Initial residual = 0.001444227823, Final residual = 8.98439439e-05, No Iterations 1
DILUPBiCG:  Solving for U3y, Initial residual = 0.001904645468, Final residual = 0.0001091487492, No Iterations 1
DILUPBiCG:  Solving for U3z, Initial residual = 0.001164755335, Final residual = 7.023341513e-05, No Iterations 1
DILUPBiCG:  Solving for alpha4, Initial residual = 0.05229400889, Final residual = 0.0006383422224, No Iterations 2
DILUPBiCG:  Solving for U4x, Initial residual = 0.002324861777, Final residual = 0.0001895769994, No Iterations 1
DILUPBiCG:  Solving for U4y, Initial residual = 0.003511253869, Final residual = 0.0001955429968, No Iterations 1
DILUPBiCG:  Solving for U4z, Initial residual = 0.001745658622, Final residual = 0.0001270513178, No Iterations 1
DILUPBiCG:  Solving for alpha5, Initial residual = 0.05318498861, Final residual = 0.0006521029748, No Iterations 2
DILUPBiCG:  Solving for U5x, Initial residual = 0.003384713781, Final residual = 0.0001473450598, No Iterations 2
DILUPBiCG:  Solving for U5y, Initial residual = 0.005632648236, Final residual = 0.0003345187941, No Iterations 1
DILUPBiCG:  Solving for U5z, Initial residual = 0.002551896875, Final residual = 0.0002437048557, No Iterations 1
DILUPBiCG:  Solving for alpha6, Initial residual = 0.05403719557, Final residual = 0.0006665107864, No Iterations 2
DILUPBiCG:  Solving for U6x, Initial residual = 0.00459379792, Final residual = 5.682992469e-05, No Iterations 2
DILUPBiCG:  Solving for U6y, Initial residual = 0.008785832577, Final residual = 0.0005265062574, No Iterations 1
DILUPBiCG:  Solving for U6z, Initial residual = 0.003350617372, Final residual = 2.392867923e-05, No Iterations 2
DILUPBiCG:  Solving for alpha7, Initial residual = 0.05412738949, Final residual = 0.0006540546904, No Iterations 2
DILUPBiCG:  Solving for U7x, Initial residual = 0.006120144296, Final residual = 5.476954711e-05, No Iterations 2
DILUPBiCG:  Solving for U7y, Initial residual = 0.01411156216, Final residual = 0.0007356056489, No Iterations 1
DILUPBiCG:  Solving for U7z, Initial residual = 0.004162523923, Final residual = 3.054295544e-05, No Iterations 2
DILUPBiCG:  Solving for alpha8, Initial residual = 0.05410309728, Final residual = 0.0006414281359, No Iterations 2
DILUPBiCG:  Solving for U8x, Initial residual = 0.007422048468, Final residual = 5.145887059e-05, No Iterations 2
DILUPBiCG:  Solving for U8y, Initial residual = 0.02118544438, Final residual = 0.0009036861637, No Iterations 1
DILUPBiCG:  Solving for U8z, Initial residual = 0.005028651872, Final residual = 3.773813401e-05, No Iterations 2
DILUPBiCG:  Solving for alpha9, Initial residual = 0.05379847596, Final residual = 0.000616677217, No Iterations 2
DILUPBiCG:  Solving for U9x, Initial residual = 0.009964901486, Final residual = 5.743850955e-05, No Iterations 2
DILUPBiCG:  Solving for U9y, Initial residual = 0.04523765381, Final residual = 0.001246839165, No Iterations 1
DILUPBiCG:  Solving for U9z, Initial residual = 0.006396155183, Final residual = 4.881663461e-05, No Iterations 2
DILUPBiCG:  Solving for alpha10, Initial residual = 0.05252658775, Final residual = 0.00519839606, No Iterations 1
DILUPBiCG:  Solving for U10x, Initial residual = 0.01231201707, Final residual = 6.545916671e-05, No Iterations 2
DILUPBiCG:  Solving for U10y, Initial residual = 0.07398223911, Final residual = 0.001482096813, No Iterations 1
DILUPBiCG:  Solving for U10z, Initial residual = 0.007553863713, Final residual = 5.748188129e-05, No Iterations 2
DILUPBiCG:  Solving for alpha11, Initial residual = 0.05193051514, Final residual = 0.005032262554, No Iterations 1
DILUPBiCG:  Solving for U11x, Initial residual = 0.01450460591, Final residual = 7.447651648e-05, No Iterations 2
DILUPBiCG:  Solving for U11y, Initial residual = 0.09541583174, Final residual = 0.001525461648, No Iterations 1
DILUPBiCG:  Solving for U11z, Initial residual = 0.008519921143, Final residual = 6.376071701e-05, No Iterations 2
DILUPBiCG:  Solving for alpha12, Initial residual = 0.05161680376, Final residual = 0.004904576764, No Iterations 1
DILUPBiCG:  Solving for U12x, Initial residual = 0.01654093696, Final residual = 8.634462416e-05, No Iterations 2
DILUPBiCG:  Solving for U12y, Initial residual = 0.1049505541, Final residual = 0.001419201718, No Iterations 1
DILUPBiCG:  Solving for U12z, Initial residual = 0.009332307383, Final residual = 6.798950864e-05, No Iterations 2
DILUPBiCG:  Solving for alpha13, Initial residual = 0.05119499683, Final residual = 0.004830163197, No Iterations 1
DILUPBiCG:  Solving for U13x, Initial residual = 0.01817802659, Final residual = 9.325227866e-05, No Iterations 2
DILUPBiCG:  Solving for U13y, Initial residual = 0.09810477556, Final residual = 0.001187329932, No Iterations 1
DILUPBiCG:  Solving for U13z, Initial residual = 0.009961270523, Final residual = 7.057081984e-05, No Iterations 2
DILUPBiCG:  Solving for alpha14, Initial residual = 0.04931397634, Final residual = 0.004459331843, No Iterations 1
DILUPBiCG:  Solving for U14x, Initial residual = 0.02316283573, Final residual = 0.0002345360378, No Iterations 2
DILUPBiCG:  Solving for U14y, Initial residual = 0.08805283977, Final residual = 0.0007620786248, No Iterations 1
DILUPBiCG:  Solving for U14z, Initial residual = 0.01149063939, Final residual = 7.215265392e-05, No Iterations 2
DILUPBiCG:  Solving for alpha15, Initial residual = 0.04802775385, Final residual = 0.004148326572, No Iterations 1
DILUPBiCG:  Solving for U15x, Initial residual = 0.02473656651, Final residual = 0.002277359641, No Iterations 1
DILUPBiCG:  Solving for U15y, Initial residual = 0.09266829361, Final residual = 0.0006017995406, No Iterations 1
DILUPBiCG:  Solving for U15z, Initial residual = 0.01242723461, Final residual = 7.127462971e-05, No Iterations 2
DILUPBiCG:  Solving for alpha16, Initial residual = 0.04816243248, Final residual = 0.003962551353, No Iterations 1
DILUPBiCG:  Solving for U16x, Initial residual = 0.02541412034, Final residual = 0.001762241996, No Iterations 1
DILUPBiCG:  Solving for U16y, Initial residual = 0.09447917586, Final residual = 0.0004865741979, No Iterations 1
DILUPBiCG:  Solving for U16z, Initial residual = 0.01306162133, Final residual = 6.962413504e-05, No Iterations 2
DILUPBiCG:  Solving for alpha17, Initial residual = 0.04894290455, Final residual = 0.003857814118, No Iterations 1
DILUPBiCG:  Solving for U17x, Initial residual = 0.02584936103, Final residual = 0.001602348788, No Iterations 1
DILUPBiCG:  Solving for U17y, Initial residual = 0.0953957497, Final residual = 0.000420514145, No Iterations 1
DILUPBiCG:  Solving for U17z, Initial residual = 0.01355038917, Final residual = 6.904875385e-05, No Iterations 2
ExecutionTime = 305.55 s ClockTime = 307 s


Time = 10
[...]
DILUPBiCG:  Solving for U16z, Initial residual = 2.044658689e-07, Final residual = 2.051430235e-09, No Iterations 2
DILUPBiCG:  Solving for alpha17, Initial residual = 4.838711594e-07, Final residual = 4.372005525e-08, No Iterations 2
DILUPBiCG:  Solving for U17x, Initial residual = 3.948505654e-08, Final residual = 3.900869259e-10, No Iterations 2
DILUPBiCG:  Solving for U17y, Initial residual = 2.277988379e-07, Final residual = 2.206361173e-09, No Iterations 2
DILUPBiCG:  Solving for U17z, Initial residual = 2.181843823e-07, Final residual = 2.23551603e-09, No Iterations 2
ExecutionTime = 6442.2 s ClockTime = 6464 s


Time = 201
DILUPBiCG:  Solving for alpha1, Initial residual = 1.128649257e-05, Final residual = 2.772787824e-07, No Iterations 1
DILUPBiCG:  Solving for U1x, Initial residual = 8.914674638e-10, Final residual = 8.914674638e-10, No Iterations 0
DILUPBiCG:  Solving for U1y, Initial residual = 8.843299494e-10, Final residual = 8.843299494e-10, No Iterations 0
DILUPBiCG:  Solving for U1z, Initial residual = 9.185820086e-10, Final residual = 9.185820086e-10, No Iterations 0
DILUPBiCG:  Solving for alpha2, Initial residual = 4.689747024e-06, Final residual = 1.245449309e-07, No Iterations 1
DILUPBiCG:  Solving for U2x, Initial residual = 8.292993066e-10, Final residual = 8.292993066e-10, No Iterations 0
DILUPBiCG:  Solving for U2y, Initial residual = 9.411259348e-10, Final residual = 9.411259348e-10, No Iterations 0
DILUPBiCG:  Solving for U2z, Initial residual = 9.937222178e-10, Final residual = 9.937222178e-10, No Iterations 0
DILUPBiCG:  Solving for alpha3, Initial residual = 1.957734812e-06, Final residual = 5.4442912e-08, No Iterations 1
DILUPBiCG:  Solving for U3x, Initial residual = 9.854452952e-10, Final residual = 9.854452952e-10, No Iterations 0
DILUPBiCG:  Solving for U3y, Initial residual = 9.320713398e-10, Final residual = 9.320713398e-10, No Iterations 0
DILUPBiCG:  Solving for U3z, Initial residual = 9.51161213e-10, Final residual = 9.51161213e-10, No Iterations 0
DILUPBiCG:  Solving for alpha4, Initial residual = 1.044435662e-06, Final residual = 2.764036048e-08, No Iterations 1
DILUPBiCG:  Solving for U4x, Initial residual = 9.727365716e-10, Final residual = 9.727365716e-10, No Iterations 0
DILUPBiCG:  Solving for U4y, Initial residual = 9.95346108e-10, Final residual = 9.95346108e-10, No Iterations 0
DILUPBiCG:  Solving for U4z, Initial residual = 9.902834989e-10, Final residual = 9.902834989e-10, No Iterations 0
DILUPBiCG:  Solving for alpha5, Initial residual = 6.275462681e-07, Final residual = 1.430692194e-08, No Iterations 1
DILUPBiCG:  Solving for U5x, Initial residual = 9.832006457e-10, Final residual = 9.832006457e-10, No Iterations 0
DILUPBiCG:  Solving for U5y, Initial residual = 9.844933145e-10, Final residual = 9.844933145e-10, No Iterations 0
DILUPBiCG:  Solving for U5z, Initial residual = 9.759132796e-10, Final residual = 9.759132796e-10, No Iterations 0
DILUPBiCG:  Solving for alpha6, Initial residual = 3.652351552e-07, Final residual = 7.761640148e-09, No Iterations 1
DILUPBiCG:  Solving for U6x, Initial residual = 9.94132687e-10, Final residual = 9.94132687e-10, No Iterations 0
DILUPBiCG:  Solving for U6y, Initial residual = 9.467219288e-10, Final residual = 9.467219288e-10, No Iterations 0
DILUPBiCG:  Solving for U6z, Initial residual = 1.989575397e-09, Final residual = 1.653309617e-10, No Iterations 1
DILUPBiCG:  Solving for alpha7, Initial residual = 1.992787795e-07, Final residual = 4.309975221e-09, No Iterations 1
DILUPBiCG:  Solving for U7x, Initial residual = 9.762341122e-10, Final residual = 9.762341122e-10, No Iterations 0
DILUPBiCG:  Solving for U7y, Initial residual = 9.760588213e-10, Final residual = 9.760588213e-10, No Iterations 0
DILUPBiCG:  Solving for U7z, Initial residual = 5.016745748e-09, Final residual = 5.007818241e-10, No Iterations 1
DILUPBiCG:  Solving for alpha8, Initial residual = 2.054329349e-07, Final residual = 1.509951889e-08, No Iterations 1
DILUPBiCG:  Solving for U8x, Initial residual = 1.248496757e-09, Final residual = 8.674426128e-10, No Iterations 1
DILUPBiCG:  Solving for U8y, Initial residual = 1.505816624e-09, Final residual = 1.311818509e-10, No Iterations 1
DILUPBiCG:  Solving for U8z, Initial residual = 9.148563926e-09, Final residual = 9.914645224e-10, No Iterations 1
DILUPBiCG:  Solving for alpha9, Initial residual = 3.130149807e-07, Final residual = 3.326613624e-09, No Iterations 2
DILUPBiCG:  Solving for U9x, Initial residual = 1.77722445e-09, Final residual = 1.062157647e-11, No Iterations 2
DILUPBiCG:  Solving for U9y, Initial residual = 4.178171132e-09, Final residual = 3.973402341e-10, No Iterations 1
DILUPBiCG:  Solving for U9z, Initial residual = 2.192788034e-08, Final residual = 1.051686279e-10, No Iterations 2
DILUPBiCG:  Solving for alpha10, Initial residual = 3.97413424e-07, Final residual = 3.700861702e-08, No Iterations 1
DILUPBiCG:  Solving for U10x, Initial residual = 3.724132661e-09, Final residual = 2.340090109e-11, No Iterations 2
DILUPBiCG:  Solving for U10y, Initial residual = 9.152969338e-09, Final residual = 9.867447485e-10, No Iterations 1
DILUPBiCG:  Solving for U10z, Initial residual = 3.671531908e-08, Final residual = 1.964051151e-10, No Iterations 2
DILUPBiCG:  Solving for alpha11, Initial residual = 4.557530006e-07, Final residual = 4.217303344e-08, No Iterations 1
DILUPBiCG:  Solving for U11x, Initial residual = 6.19683285e-09, Final residual = 4.135256221e-11, No Iterations 2
DILUPBiCG:  Solving for U11y, Initial residual = 1.756848524e-08, Final residual = 1.04825644e-10, No Iterations 2
DILUPBiCG:  Solving for U11z, Initial residual = 5.248420968e-08, Final residual = 3.076961626e-10, No Iterations 2
DILUPBiCG:  Solving for alpha12, Initial residual = 4.845119586e-07, Final residual = 4.37446175e-08, No Iterations 1
DILUPBiCG:  Solving for U12x, Initial residual = 9.03760497e-09, Final residual = 6.391944618e-11, No Iterations 2
DILUPBiCG:  Solving for U12y, Initial residual = 3.010761599e-08, Final residual = 2.018379715e-10, No Iterations 2
DILUPBiCG:  Solving for U12z, Initial residual = 6.813023914e-08, Final residual = 4.332671033e-10, No Iterations 2
DILUPBiCG:  Solving for alpha13, Initial residual = 4.879851715e-07, Final residual = 4.338687741e-08, No Iterations 1
DILUPBiCG:  Solving for U13x, Initial residual = 1.212158606e-08, Final residual = 9.022086797e-11, No Iterations 2
DILUPBiCG:  Solving for U13y, Initial residual = 4.649078479e-08, Final residual = 3.390970302e-10, No Iterations 2
DILUPBiCG:  Solving for U13z, Initial residual = 8.278612038e-08, Final residual = 5.62972304e-10, No Iterations 2
DILUPBiCG:  Solving for alpha14, Initial residual = 4.749481967e-07, Final residual = 6.463134703e-09, No Iterations 2
DILUPBiCG:  Solving for U14x, Initial residual = 2.695263469e-08, Final residual = 2.364396437e-10, No Iterations 2
DILUPBiCG:  Solving for U14y, Initial residual = 1.514360585e-07, Final residual = 1.355370394e-09, No Iterations 2
DILUPBiCG:  Solving for U14z, Initial residual = 1.433828731e-07, Final residual = 1.228894952e-09, No Iterations 2
DILUPBiCG:  Solving for alpha15, Initial residual = 4.669497699e-07, Final residual = 1.572839388e-08, No Iterations 2
DILUPBiCG:  Solving for U15x, Initial residual = 3.527655265e-08, Final residual = 3.324725818e-10, No Iterations 2
DILUPBiCG:  Solving for U15y, Initial residual = 2.148798857e-07, Final residual = 2.047749027e-09, No Iterations 2
DILUPBiCG:  Solving for U15z, Initial residual = 1.791290692e-07, Final residual = 1.706277386e-09, No Iterations 2
DILUPBiCG:  Solving for alpha16, Initial residual = 4.704219954e-07, Final residual = 3.433082399e-08, No Iterations 2
DILUPBiCG:  Solving for U16x, Initial residual = 3.832254874e-08, Final residual = 3.728689152e-10, No Iterations 2
DILUPBiCG:  Solving for U16y, Initial residual = 2.261269448e-07, Final residual = 2.182193825e-09, No Iterations 2
DILUPBiCG:  Solving for U16z, Initial residual = 2.027753823e-07, Final residual = 2.023959242e-09, No Iterations 2
DILUPBiCG:  Solving for alpha17, Initial residual = 4.746871209e-07, Final residual = 4.719479321e-09, No Iterations 3
DILUPBiCG:  Solving for U17x, Initial residual = 3.922644007e-08, Final residual = 3.86013798e-10, No Iterations 2
DILUPBiCG:  Solving for U17y, Initial residual = 2.246432362e-07, Final residual = 2.165690798e-09, No Iterations 2
DILUPBiCG:  Solving for U17z, Initial residual = 2.164336895e-07, Final residual = 2.205762133e-09, No Iterations 2
ExecutionTime = 6478.97 s ClockTime = 6500 s


Time = 202
DILUPBiCG:  Solving for alpha1, Initial residual = 8.725973902e-06, Final residual = 2.157462162e-07, No Iterations 1
DILUPBiCG:  Solving for U1x, Initial residual = 8.914674638e-10, Final residual = 8.914674638e-10, No Iterations 0
DILUPBiCG:  Solving for U1y, Initial residual = 8.843299494e-10, Final residual = 8.843299494e-10, No Iterations 0
DILUPBiCG:  Solving for U1z, Initial residual = 9.185820086e-10, Final residual = 9.185820086e-10, No Iterations 0
DILUPBiCG:  Solving for alpha2, Initial residual = 3.585710736e-06, Final residual = 9.521633881e-08, No Iterations 1
DILUPBiCG:  Solving for U2x, Initial residual = 8.292993066e-10, Final residual = 8.292993066e-10, No Iterations 0
DILUPBiCG:  Solving for U2y, Initial residual = 9.411259348e-10, Final residual = 9.411259348e-10, No Iterations 0
DILUPBiCG:  Solving for U2z, Initial residual = 9.937222178e-10, Final residual = 9.937222178e-10, No Iterations 0
DILUPBiCG:  Solving for alpha3, Initial residual = 1.478542498e-06, Final residual = 4.103616669e-08, No Iterations 1
DILUPBiCG:  Solving for U3x, Initial residual = 9.854452952e-10, Final residual = 9.854452952e-10, No Iterations 0
DILUPBiCG:  Solving for U3y, Initial residual = 9.320713398e-10, Final residual = 9.320713398e-10, No Iterations 0
DILUPBiCG:  Solving for U3z, Initial residual = 9.51161213e-10, Final residual = 9.51161213e-10, No Iterations 0
DILUPBiCG:  Solving for alpha4, Initial residual = 7.801442456e-07, Final residual = 2.066258729e-08, No Iterations 1
DILUPBiCG:  Solving for U4x, Initial residual = 9.727365716e-10, Final residual = 9.727365716e-10, No Iterations 0
DILUPBiCG:  Solving for U4y, Initial residual = 9.95346108e-10, Final residual = 9.95346108e-10, No Iterations 0
DILUPBiCG:  Solving for U4z, Initial residual = 9.902834989e-10, Final residual = 9.902834989e-10, No Iterations 0
DILUPBiCG:  Solving for alpha5, Initial residual = 4.647040066e-07, Final residual = 1.057800515e-08, No Iterations 1
DILUPBiCG:  Solving for U5x, Initial residual = 9.832006457e-10, Final residual = 9.832006457e-10, No Iterations 0
DILUPBiCG:  Solving for U5y, Initial residual = 9.844933145e-10, Final residual = 9.844933145e-10, No Iterations 0
DILUPBiCG:  Solving for U5z, Initial residual = 9.759132796e-10, Final residual = 9.759132796e-10, No Iterations 0
DILUPBiCG:  Solving for alpha6, Initial residual = 2.694333622e-07, Final residual = 5.735263576e-09, No Iterations 1
DILUPBiCG:  Solving for U6x, Initial residual = 9.942598505e-10, Final residual = 9.942598505e-10, No Iterations 0
DILUPBiCG:  Solving for U6y, Initial residual = 9.475998062e-10, Final residual = 9.475998062e-10, No Iterations 0
DILUPBiCG:  Solving for U6z, Initial residual = 1.93080861e-09, Final residual = 1.601387654e-10, No Iterations 1
DILUPBiCG:  Solving for alpha7, Initial residual = 1.474206785e-07, Final residual = 3.239599369e-09, No Iterations 1
DILUPBiCG:  Solving for U7x, Initial residual = 9.760955073e-10, Final residual = 9.760955073e-10, No Iterations 0
DILUPBiCG:  Solving for U7y, Initial residual = 9.779232256e-10, Final residual = 9.779232256e-10, No Iterations 0
DILUPBiCG:  Solving for U7z, Initial residual = 4.890699162e-09, Final residual = 4.878897556e-10, No Iterations 1
DILUPBiCG:  Solving for alpha8, Initial residual = 1.759880729e-07, Final residual = 1.449345481e-08, No Iterations 1
DILUPBiCG:  Solving for U8x, Initial residual = 1.241351199e-09, Final residual = 8.639764336e-10, No Iterations 1
DILUPBiCG:  Solving for U8y, Initial residual = 1.455747889e-09, Final residual = 1.26204142e-10, No Iterations 1
DILUPBiCG:  Solving for U8z, Initial residual = 9.087167134e-09, Final residual = 4.08002094e-11, No Iterations 2
DILUPBiCG:  Solving for alpha9, Initial residual = 2.949717781e-07, Final residual = 5.020269512e-09, No Iterations 2
DILUPBiCG:  Solving for U9x, Initial residual = 1.750737678e-09, Final residual = 1.039403874e-11, No Iterations 2
DILUPBiCG:  Solving for U9y, Initial residual = 4.045889409e-09, Final residual = 3.822761757e-10, No Iterations 1
DILUPBiCG:  Solving for U9z, Initial residual = 2.150592465e-08, Final residual = 1.025086247e-10, No Iterations 2
DILUPBiCG:  Solving for alpha10, Initial residual = 3.839972763e-07, Final residual = 3.620590299e-08, No Iterations 1
DILUPBiCG:  Solving for U10x, Initial residual = 3.674380502e-09, Final residual = 2.294706359e-11, No Iterations 2
DILUPBiCG:  Solving for U10y, Initial residual = 9.004221637e-09, Final residual = 9.798909e-10, No Iterations 1
DILUPBiCG:  Solving for U10z, Initial residual = 3.608008225e-08, Final residual = 1.918190466e-10, No Iterations 2
DILUPBiCG:  Solving for alpha11, Initial residual = 4.444892801e-07, Final residual = 4.126268865e-08, No Iterations 1
DILUPBiCG:  Solving for U11x, Initial residual = 6.120655096e-09, Final residual = 4.061464618e-11, No Iterations 2
DILUPBiCG:  Solving for U11y, Initial residual = 1.711708069e-08, Final residual = 1.014955794e-10, No Iterations 2
DILUPBiCG:  Solving for U11z, Initial residual = 5.165021189e-08, Final residual = 3.010256192e-10, No Iterations 2
DILUPBiCG:  Solving for alpha12, Initial residual = 4.740192141e-07, Final residual = 4.268054921e-08, No Iterations 1
DILUPBiCG:  Solving for U12x, Initial residual = 8.935035353e-09, Final residual = 6.286058901e-11, No Iterations 2
DILUPBiCG:  Solving for U12y, Initial residual = 2.941278597e-08, Final residual = 1.961221226e-10, No Iterations 2
DILUPBiCG:  Solving for U12z, Initial residual = 6.712847148e-08, Final residual = 4.244893237e-10, No Iterations 2
DILUPBiCG:  Solving for alpha13, Initial residual = 4.783500423e-07, Final residual = 4.23742746e-08, No Iterations 1
DILUPBiCG:  Solving for U13x, Initial residual = 1.199368256e-08, Final residual = 8.88257269e-11, No Iterations 2
DILUPBiCG:  Solving for U13y, Initial residual = 4.552119542e-08, Final residual = 3.303721355e-10, No Iterations 2
DILUPBiCG:  Solving for U13z, Initial residual = 8.165073956e-08, Final residual = 5.522566745e-10, No Iterations 2
DILUPBiCG:  Solving for alpha14, Initial residual = 4.67098498e-07, Final residual = 6.47393608e-09, No Iterations 2
DILUPBiCG:  Solving for U14x, Initial residual = 2.673502552e-08, Final residual = 2.335572565e-10, No Iterations 2
DILUPBiCG:  Solving for U14y, Initial residual = 1.491555652e-07, Final residual = 1.328920186e-09, No Iterations 2
DILUPBiCG:  Solving for U14z, Initial residual = 1.418973412e-07, Final residual = 1.210133857e-09, No Iterations 2
DILUPBiCG:  Solving for alpha15, Initial residual = 4.595469116e-07, Final residual = 1.654608648e-08, No Iterations 2
DILUPBiCG:  Solving for U15x, Initial residual = 3.502475609e-08, Final residual = 3.288297801e-10, No Iterations 2
DILUPBiCG:  Solving for U15y, Initial residual = 2.119212537e-07, Final residual = 2.010689623e-09, No Iterations 2
DILUPBiCG:  Solving for U15z, Initial residual = 1.77534129e-07, Final residual = 1.682598532e-09, No Iterations 2
DILUPBiCG:  Solving for alpha16, Initial residual = 4.620857849e-07, Final residual = 3.942147294e-08, No Iterations 2
DILUPBiCG:  Solving for U16x, Initial residual = 3.806544333e-08, Final residual = 3.689080488e-10, No Iterations 2
DILUPBiCG:  Solving for U16y, Initial residual = 2.230428392e-07, Final residual = 2.141985878e-09, No Iterations 2
DILUPBiCG:  Solving for U16z, Initial residual = 2.01090308e-07, Final residual = 1.996851823e-09, No Iterations 2
DILUPBiCG:  Solving for alpha17, Initial residual = 4.682414806e-07, Final residual = 6.959489844e-09, No Iterations 3
DILUPBiCG:  Solving for U17x, Initial residual = 3.896818522e-08, Final residual = 3.819855597e-10, No Iterations 2
DILUPBiCG:  Solving for U17y, Initial residual = 2.215212224e-07, Final residual = 2.125979527e-09, No Iterations 2
DILUPBiCG:  Solving for U17z, Initial residual = 2.146876733e-07, Final residual = 2.17638328e-09, No Iterations 2
ExecutionTime = 6509.3 s ClockTime = 6531 s


SIMPLE solution converged in 202 iterations


Calculating specific catch ratio fields

Calculating catch ratio field

ExecutionTime = 6616.4 s  ClockTime = 6639 s

End

Finalising parallel run
/*---------------------------------------------------------------------------*\
  =========                 |
  \\      /  F ield         | OpenFOAM: The Open Source CFD Toolbox
   \\    /   O peration     | Website:  https://openfoam.org
    \\  /    A nd           | Version:  7
     \\/     M anipulation  |
\*---------------------------------------------------------------------------*/
Build  : 7
Exec   : reconstructPar
Date   : Aug 17 2023
Time   : 11:56:19
Host   : "cdr1477.int.cedar.computecanada.ca"
PID    : 94058
I/O    : uncollated
Case   : /scratch/payamghp/cubicBuilding.windDrivenRainFoam_kOmega_overhang12_U2.12
nProcs : 1
sigFpe : Enabling floating point exception trapping (FOAM_SIGFPE).
fileModificationChecking : Monitoring run-time modified files using timeStampMaster (fileModificationSkew 10)
allowSystemOperations : Allowing user-supplied system call operations

// * * * * * * * * * * * * * * * * * * * * * * * * * * * * * * * * * * * * * //
Create time



Reconstructing fields for mesh region0

Time = 100

Reconstructing FV fields

    Reconstructing volScalarFields

        alpha10
        alpha13
        alpha2
        alpha17
        alpha14
        alpha5
        alpha9
        alpha1
        alpha3
        alpha7
        alpha15
        alpha12
        alpha4
        alpha16
        alpha6
        alpha11
        alpha8

    Reconstructing volVectorFields

        U1
        U16
        U3
        U12
        U2
        U8
        U10
        U15
        U6
        U9
        U17
        U7
        U4
        U5
        U14
        U11
        U13

Reconstructing point fields

No point fields

No lagrangian fields

Time = 200

Reconstructing FV fields

    Reconstructing volScalarFields

        alpha10
        alpha13
        alpha2
        alpha17
        alpha14
        alpha5
        alpha9
        alpha1
        alpha3
        alpha7
        alpha15
        alpha12
        alpha4
        alpha16
        alpha6
        alpha11
        alpha8

    Reconstructing volVectorFields

        U1
        U16
        U3
        U12
        U2
        U8
        U10
        U15
        U6
        U9
        U17
        U7
        U4
        U5
        U14
        U11
        U13

Reconstructing point fields

No point fields

No lagrangian fields

Time = 202

Reconstructing FV fields

    Reconstructing volScalarFields

        alpha10
        scr4
        scr7
        scr6
        scr2
        scr15
        scr10
        scr17
        scr9
        gcr0.8
        alpha13
        scr13
        alpha2
        alpha17
        alpha14
        alpha5
        scr14
        alpha9
        scr5
        scr12
        alpha1
        alpha3
        scr8
        scr3
        alpha7
        alpha15
        scr11
        scr1
        scr16
        alpha12
        alpha4
        alpha16
        alpha6
        gcr0.76
        gcr1.26
        alpha11
        gcr0.84
        alpha8

    Reconstructing volVectorFields

        U1
        U16
        U3
        U12
        U2
        U8
        U10
        U15
        U6
        U9
        U17
        U7
        U4
        U5
        U14
        U11
        U13

Reconstructing point fields

No point fields

No lagrangian fields


End

